! RI-MP2 RIJK def2-TZVP def2-TZVP/C def2-TZVP/JK TIGHTSCF
% maxcore 2000
% mp2 density relaxed end
*xyz 0 1
 C        1.0416820000    -0.0562000000    -0.0714810000 
 H        2.1308940000    -0.0562020000    -0.0714960000 
 H        0.6785980000     0.1749410000    -1.0720440000 
 H        0.6786130000     0.6947460000     0.6289800000 
 H        0.6786140000    -1.0382850000     0.2286410000 
*
