! RI-MP2 RIJK def2-TZVP def2-TZVP/C def2-TZVP/JK TIGHTSCF
% maxcore 2000
% mp2 density relaxed end
*xyz 0 1
 C        0.9222800000     0.0283620000    -0.0419920000 
 N        2.3655540000    -0.0258770000    -0.0726580000 
 C        2.8879310000    -1.3071560000     0.3425110000 
 H        0.5810740000     1.0308550000    -0.3082240000 
 H        0.4829330000    -0.2390850000     0.9347500000 
 H        0.5155170000    -0.6658170000    -0.7834350000 
 H        2.7490390000     0.7063320000     0.5101290000 
 H        2.5880570000    -2.0739520000    -0.3780290000 
 H        2.5373500000    -1.6349220000     1.3366150000 
 H        3.9793750000    -1.2780420000     0.3565330000 
*
