! RI-MP2 RIJK def2-TZVP def2-TZVP/C def2-TZVP/JK TIGHTSCF
% maxcore 2000
% mp2 density relaxed end
*xyz 0 1
 C        1.0067180000     0.0746830000     0.0481630000 
 C        2.3361700000     0.0886640000    -0.0345380000 
 C        3.0593810000     0.2923030000    -1.2373760000 
 C        3.7031930000     0.4619760000    -2.2395720000 
 H        0.5127840000    -0.0861830000     0.9983410000 
 H        0.3840760000     0.2226910000    -0.8259680000 
 H        2.9343710000    -0.0628700000     0.8604220000 
 H        4.2644980000     0.6129280000    -3.1310610000 
*
