! RI-MP2 RIJK def2-TZVP def2-TZVP/C def2-TZVP/JK TIGHTSCF
% maxcore 2000
% mp2 density relaxed end
*xyz 0 1
 C        0.8925640000     0.0341150000     0.0015840000 
 C        2.3440870000     0.0337480000     0.0019280000 
 C        3.5461220000     0.0340960000     0.0019900000 
 C        4.9976330000     0.0342140000     0.0016240000 
 H        0.4985830000    -0.2672220000     0.9755790000 
 H        0.4989430000    -0.6585840000    -0.7467060000 
 H        0.4993680000     1.0286010000    -0.2244290000 
 H        5.3909270000     0.6716710000    -0.7944210000 
 H        5.3912590000    -0.9737560000    -0.1525340000 
 H        5.3915130000     0.4048070000     0.9514860000 
*
