! RI-MP2 RIJK def2-TZVP def2-TZVP/C def2-TZVP/JK TIGHTSCF
% maxcore 2000
% mp2 density relaxed end
*xyz 0 1
 C        1.0368530000     0.1023610000    -0.0145050000 
 C        2.5620140000     0.0565370000    -0.0613600000 
 C        3.0717110000    -0.8977070000    -1.0326480000 
 C        3.4720420000    -1.6905510000    -1.8406610000 
 H        0.7014550000     0.8304230000     0.7268490000 
 H        0.6273810000    -0.8735260000     0.2514540000 
 H        0.6271860000     0.3858150000    -0.9853720000 
 H        2.9581600000    -0.2002380000     0.9267390000 
 H        2.9579570000     1.0491670000    -0.3004150000 
 H        3.8335410000    -2.3915910000    -2.5547820000 
*
