! RI-MP2 RIJK def2-TZVP def2-TZVP/C def2-TZVP/JK TIGHTSCF
% maxcore 2000
% mp2 density relaxed end
*xyz 0 1
 C        0.9251560000     0.0615220000    -0.0561150000 
 C        2.2541000000     0.0614750000    -0.0858250000 
 C        2.9978870000     0.0585680000    -1.2998580000 
 N        3.6202430000     0.0562480000    -2.2691920000 
 H        0.3955630000     0.0637840000     0.8882460000 
 H        0.3372220000     0.0593210000    -0.9657560000 
 H        2.8404280000     0.0636830000     0.8270980000 
*
