! RI-MP2 RIJK def2-TZVP def2-TZVP/C def2-TZVP/JK TIGHTSCF
% maxcore 2000
% mp2 density relaxed end
*xyz 0 1
 C        0.9145130000    -0.0345000000     0.0178000000 
 C        2.1157220000    -0.0345000000     0.0178000000 
 C        3.4847880000    -0.0345000000     0.0178000000 
 N        4.6388790000    -0.0345000000     0.0178000000 
 H       -0.1511020000    -0.0345000000     0.0178000000 
*
