! RI-MP2 RIJK def2-TZVP def2-TZVP/C def2-TZVP/JK TIGHTSCF
% maxcore 2000
% mp2 density relaxed end
*xyz 0 1
 O        0.9060320000     0.1544980000    -0.0306240000 
 C        2.1059860000     0.0852160000    -0.0031990000 
 C        2.8364370000    -1.0726250000     0.4557630000 
 C        3.4909400000    -2.0096910000     0.8272050000 
 H        2.7447370000     0.9248830000    -0.3360570000 
 H        4.0534680000    -2.8510820000     1.1607220000 
*
