! RI-MP2 RIJK def2-TZVP def2-TZVP/C def2-TZVP/JK TIGHTSCF
% maxcore 2000
% mp2 density relaxed end
*xyz 0 1
 C        1.0399450000     0.0547570000    -0.0672690000 
 C        2.5328180000     0.0205400000    -0.0486690000 
 N        3.1398420000    -0.9543390000     0.4808490000 
 O        4.5150710000    -0.8099730000     0.4024470000 
 H        0.6832500000     0.9597760000    -0.5588450000 
 H        0.6336870000     0.0341520000     0.9464280000 
 H        0.6337020000    -0.8067980000    -0.6018150000 
 H        3.1045610000     0.8382410000    -0.4928040000 
 H        4.8405440000    -1.6044560000     0.8339780000 
*
