! RI-MP2 RIJK def2-TZVP def2-TZVP/C def2-TZVP/JK TIGHTSCF
% maxcore 2000
% mp2 density relaxed end
*xyz 0 1
 C        1.0087210000     0.1064460000    -0.0045490000 
 C        2.2083530000     0.0411440000     0.0177930000 
 C        3.6407280000    -0.0093040000     0.0476330000 
 C        4.3709220000    -0.7058210000    -1.0412400000 
 N        4.4168120000     0.7429630000    -0.9462240000 
 H       -0.0540720000     0.1597590000    -0.0235700000 
 H        4.0803010000    -0.0023340000     1.0401320000 
 H        3.7724420000    -1.1650590000    -1.8202320000 
 H        5.3002650000    -1.2123860000    -0.8050140000 
 H        3.7798380000     1.1578910000    -1.6186390000 
*
