! RI-MP2 RIJK def2-TZVP def2-TZVP/C def2-TZVP/JK TIGHTSCF
% maxcore 2000
% mp2 density relaxed end
*xyz 0 1
 C       -0.3667580000     1.1614830000     0.1438360000 
 O       -1.1719490000    -0.0026350000     0.2203180000 
 C       -0.3674570000    -1.1657880000     0.1242970000 
 C        1.0302870000    -0.6630110000    -0.0214130000 
 C        1.0306840000     0.6603840000    -0.0103020000 
 H       -0.4962670000     1.7654680000     1.0533650000 
 H       -0.6851290000     1.7804040000    -0.7072710000 
 H       -0.6861950000    -1.7701400000    -0.7370810000 
 H       -0.4973330000    -1.7848820000     1.0235570000 
 H        1.8919710000    -1.3102550000    -0.1192970000 
 H        1.8927570000     1.3086630000    -0.0973090000 
*
