! RI-MP2 RIJK def2-TZVP def2-TZVP/C def2-TZVP/JK TIGHTSCF
% maxcore 2000
% mp2 density relaxed end
*xyz 0 1
 C        1.7371240000    -0.2258630000     1.1259770000 
 C        2.5860940000    -0.2102920000     0.1096060000 
 C        3.2466070000     1.0184850000    -0.4122390000 
 C        4.7328510000     0.9008730000    -0.6142330000 
 O        5.3734980000    -0.1009970000    -0.4618420000 
 H        1.2780580000    -1.1472440000     1.4641770000 
 H        1.4708420000     0.6809420000     1.6608060000 
 H        2.8436310000    -1.1381960000    -0.3927040000 
 H        3.0577360000     1.8869920000     0.2296810000 
 H        2.8399880000     1.2981170000    -1.3971810000 
 H        5.2246490000     1.8419830000    -0.9459480000 
*
