! RI-MP2 RIJK def2-TZVP def2-TZVP/C def2-TZVP/JK TIGHTSCF
% maxcore 2000
% mp2 density relaxed end
*xyz 0 1
 C        0.9981020000     0.0407230000     0.0365570000 
 C        2.4865020000    -0.0041640000     0.0621780000 
 C        3.2825550000     0.2373320000    -0.9736580000 
 C        4.7714990000     0.1801890000    -0.9145990000 
 O        5.3118360000    -0.7666110000    -1.8203040000 
 H        0.6161850000     0.7912940000     0.7359630000 
 H        0.5699990000    -0.9183530000     0.3449340000 
 H        0.6217730000     0.2803040000    -0.9595170000 
 H        2.9470170000    -0.2475570000     1.0198570000 
 H        2.8515310000     0.4756390000    -1.9451590000 
 H        5.0956460000    -0.0228410000     0.1156230000 
 H        5.2055480000     1.1394990000    -1.2116300000 
 H        4.8799280000    -1.6081530000    -1.6498550000 
*
