! RI-MP2 RIJK def2-TZVP def2-TZVP/C def2-TZVP/JK TIGHTSCF
% maxcore 2000
% mp2 density relaxed end
*xyz 0 1
 C        0.9480440000    -0.0849440000     0.0333200000 
 C        2.3932200000    -0.0939150000     0.0072670000 
 C        3.5978290000    -0.1145820000    -0.0380060000 
 C        5.0355090000    -0.1061290000    -0.0325910000 
 O        5.7232080000    -0.5852270000    -0.8981290000 
 H        0.5613950000    -1.1071610000     0.0213380000 
 H        0.5550790000     0.4299850000    -0.8470000000 
 H        0.5692210000     0.4175370000     0.9257860000 
 H        5.4863950000     0.3869550000     0.8503160000 
*
