! RI-MP2 RIJK def2-TZVP def2-TZVP/C def2-TZVP/JK TIGHTSCF
% maxcore 2000
% mp2 density relaxed end
*xyz 0 1
 C        0.9636260000    -0.1079060000    -0.0828400000 
 C        2.4599920000     0.1479350000    -0.0567050000 
 N        2.8458130000     1.3215800000    -0.8080820000 
 C        3.2224380000     2.4814020000    -0.2270980000 
 O        3.3184850000     2.6718200000     0.9635370000 
 H        0.7203300000    -1.0034850000     0.4936070000 
 H        0.6023180000    -0.2599150000    -1.1035300000 
 H        0.4215990000     0.7353480000     0.3492770000 
 H        3.0032070000    -0.7180910000    -0.4473510000 
 H        2.8008520000     0.3166780000     0.9653640000 
 H        2.7690030000     1.3074710000    -1.8109800000 
 H        3.4497370000     3.2655530000    -0.9744000000 
*
