! RI-MP2 RIJK def2-TZVP def2-TZVP/C def2-TZVP/JK TIGHTSCF
% maxcore 2000
% mp2 density relaxed end
*xyz 0 1
 C        0.9572440000     0.3586650000     0.1704150000 
 C        2.4469420000     0.1380330000     0.1541130000 
 O        2.6698090000    -1.2571330000    -0.0109430000 
 N        4.0144450000    -1.5148290000    -0.0326260000 
 C        4.2633290000    -2.7463550000    -0.1779810000 
 H        0.7420380000     1.4217740000     0.2958820000 
 H        0.4909600000    -0.1855220000     0.9940090000 
 H        0.5028070000     0.0243860000    -0.7642580000 
 H        2.9111510000     0.4680610000     1.0893410000 
 H        2.9230120000     0.6782020000    -0.6708930000 
 H        5.3082820000    -3.0298090000    -0.2047960000 
 H        3.4810920000    -3.4983640000    -0.2730610000 
*
