! RI-MP2 RIJK def2-TZVP def2-TZVP/C def2-TZVP/JK TIGHTSCF
% maxcore 2000
% mp2 density relaxed end
*xyz 0 1
 S       -0.3478300000    -1.3765610000    -0.0014640000 
 C       -1.2439400000     0.0593540000    -0.0019310000 
 C       -0.3778290000     1.1169970000     0.0000640000 
 C        0.9550630000     0.6484920000     0.0018210000 
 N        1.1199590000    -0.6548310000     0.0012590000 
 H       -2.3239330000     0.0753930000    -0.0035830000 
 H       -0.6703290000     2.1576150000     0.0002680000 
 H        1.8355480000     1.2816320000     0.0035740000 
*
