! RI-MP2 RIJK def2-TZVP def2-TZVP/C def2-TZVP/JK TIGHTSCF
% maxcore 2000
% mp2 density relaxed end
*xyz 0 1
 C        2.3065650000    -0.9769710000    -0.0365810000 
 C        2.3100770000     0.5381500000    -0.1649070000 
 C        2.4601250000     1.1113550000    -1.5836650000 
 C        1.3052480000     0.6605130000    -2.4756630000 
 C        3.7854880000     0.6775550000    -2.2064740000 
 C        2.4383260000     2.6353880000    -1.4793020000 
 H        2.1949480000    -1.2697320000     1.0101170000 
 H        3.2368160000    -1.4205500000    -0.3989240000 
 H        1.4818530000    -1.4326190000    -0.5894440000 
 H        3.1206180000     0.9461830000     0.4510010000 
 H        1.3808050000     0.9342230000     0.2621620000 
 H        1.3061070000    -0.4218160000    -2.6241520000 
 H        1.3758200000     1.1274200000    -3.4621060000 
 H        0.3405740000     0.9409070000    -2.0420840000 
 H        4.6307870000     0.9703950000    -1.5764560000 
 H        3.8312070000    -0.4044660000    -2.3500870000 
 H        3.9218430000     1.1449080000    -3.1857810000 
 H        1.4992300000     2.9863940000    -1.0413940000 
 H        2.5421280000     3.0982820000    -2.4648450000 
 H        3.2567340000     2.9984700000    -0.8506130000 
*
