! RI-MP2 RIJK def2-TZVP def2-TZVP/C def2-TZVP/JK TIGHTSCF
% maxcore 2000
% mp2 density relaxed end
*xyz 0 1
 C        0.9009700000     0.0190480000    -0.0546550000 
 C        2.3518100000     0.0185770000    -0.0750700000 
 C        3.5555210000     0.0174690000    -0.0887820000 
 C        4.9885050000     0.0163830000    -0.1041660000 
 C        5.7322060000    -0.7231880000    -1.1887210000 
 C        5.7340040000     0.7676850000    -1.1790730000 
 H        0.4981810000     0.9313170000    -0.5025640000 
 H        0.5265210000    -0.0417670000     0.9705430000 
 H        0.4968870000    -0.8331720000    -0.6073950000 
 H        5.4541250000     0.0095950000     0.8759690000 
 H        5.1317050000    -1.2257250000    -1.9354320000 
 H        6.6378100000    -1.2435140000    -0.9032680000 
 H        5.1354560000     1.2816670000    -1.9195260000 
 H        6.6411080000     1.2813450000    -0.8863400000 
*
