! RI-MP2 RIJK def2-TZVP def2-TZVP/C def2-TZVP/JK TIGHTSCF
% maxcore 2000
% mp2 density relaxed end
*xyz 0 1
 C        1.0042700000    -0.0479140000     0.0549070000 
 C        2.3343660000    -0.0177290000     0.1571670000 
 C        3.0329830000     0.3293210000     1.3331850000 
 C        3.6657250000     0.6218600000     2.3244910000 
 C        4.3660970000     0.9517860000     3.4425090000 
 C        4.9892700000     1.2441910000     4.4333820000 
 H        0.5281970000    -0.3231610000    -0.8778100000 
 H        0.3664380000     0.1999080000     0.8947040000 
 H        2.9477120000    -0.2719390000    -0.7042800000 
 H        5.5385330000     1.5021860000     5.3076450000 
*
