! RI-MP2 RIJK def2-TZVP def2-TZVP/C def2-TZVP/JK TIGHTSCF
% maxcore 2000
% mp2 density relaxed end
*xyz 0 1
 C       -0.7442650000     1.1496960000     0.0089260000 
 C        0.6398500000     1.1803420000     0.0261490000 
 N        1.3735110000     0.0733680000     0.0541100000 
 C        0.6989700000    -1.0697260000     0.0646270000 
 N       -0.6194290000    -1.2226880000     0.0502880000 
 C       -1.3336610000    -0.1030780000     0.0223630000 
 H       -1.3343380000     2.0571160000    -0.0138380000 
 H        1.1813090000     2.1228320000     0.0172950000 
 H        1.2913600000    -1.9807090000     0.0874930000 
 H       -2.4147270000    -0.2157540000     0.0103980000 
*
