! RI-MP2 RIJK def2-TZVP def2-TZVP/C def2-TZVP/JK TIGHTSCF
% maxcore 2000
% mp2 density relaxed end
*xyz 0 1
 C        0.2914030000    -1.4349850000     0.0206550000 
 N       -1.0220010000    -0.8063580000     0.0119100000 
 N       -1.3018190000     0.4907580000    -0.0008080000 
 C       -0.3330910000     1.3347850000    -0.0076960000 
 C        1.0535680000     0.9140720000    -0.0020800000 
 C        1.3561330000    -0.3825940000     0.0111120000 
 H        0.4052560000    -2.0998340000    -0.8512360000 
 H        0.4026620000    -2.0812950000     0.9067390000 
 H       -1.8377040000    -1.3890330000     0.0167890000 
 H       -0.6096000000     2.3815030000    -0.0181730000 
 H        1.8347090000     1.6657670000    -0.0087680000 
 H        2.3855840000    -0.7232850000     0.0155650000 
*
