! RI-MP2 RIJK def2-TZVP def2-TZVP/C def2-TZVP/JK TIGHTSCF
% maxcore 2000
% mp2 density relaxed end
*xyz 0 1
 C        0.8923160000    -0.0471180000    -0.0588490000 
 C        2.3818710000    -0.0422190000    -0.0551540000 
 C        3.2267060000     1.0438730000    -0.0523170000 
 N        4.4854610000     0.5571930000    -0.0495290000 
 N        4.5318840000    -0.7717670000    -0.0503210000 
 C        3.2622560000    -1.1442110000    -0.0537250000 
 H        0.4958870000     0.9696000000    -0.0591610000 
 H        0.4905680000    -0.5580680000     0.8201880000 
 H        0.4949320000    -0.5569070000    -0.9405410000 
 H        3.0236770000     2.1036970000    -0.0520960000 
 H        5.3441440000     1.0776180000    -0.0470470000 
 H        3.0157100000    -2.1964830000    -0.0550560000 
*
