! RI-MP2 RIJK def2-TZVP def2-TZVP/C def2-TZVP/JK TIGHTSCF
% maxcore 2000
% mp2 density relaxed end
*xyz 0 1
 C        1.0450090000    -0.0313000000     0.0827000000 
 C        2.2506880000    -0.0313000000     0.0827000000 
 C        3.6060380000    -0.0313000000     0.0827000000 
 C        4.8173320000    -0.0313000000     0.0827000000 
 C        6.1787980000    -0.0313000000     0.0827000000 
 N        7.3352640000    -0.0313000000     0.0827000000 
 H       -0.0203380000    -0.0313000000     0.0827000000 
*
