! RI-MP2 RIJK def2-TZVP def2-TZVP/C def2-TZVP/JK TIGHTSCF
% maxcore 2000
% mp2 density relaxed end
*xyz 0 1
 C        1.0868010000     0.0855840000    -0.1143940000 
 C        2.6037480000     0.0641460000    -0.0392650000 
 C        3.1170240000    -0.6421430000     1.2046130000 
 C        4.6445920000    -0.6565330000     1.2671170000 
 C        5.1529080000    -1.3290440000     2.4518460000 
 N        5.5359080000    -1.8642260000     3.3946410000 
 H        0.7402840000     0.5976360000    -1.0143670000 
 H        0.6563790000     0.6011110000     0.7482920000 
 H        0.6782630000    -0.9283650000    -0.1303360000 
 H        2.9886680000     1.0903260000    -0.0578520000 
 H        3.0103340000    -0.4292940000    -0.9296400000 
 H        2.7474580000    -1.6718670000     1.2294520000 
 H        2.7260570000    -0.1517850000     2.1014010000 
 H        5.0367250000     0.3654730000     1.2602900000 
 H        5.0581490000    -1.1581180000     0.3864030000 
*
