! RI-MP2 RIJK def2-TZVP def2-TZVP/C def2-TZVP/JK TIGHTSCF
% maxcore 2000
% mp2 density relaxed end
*xyz 0 1
 C        0.9628150000    -0.0242510000     0.0869850000 
 C        2.2994850000    -0.0246860000     0.0886070000 
 C        3.0472230000    -0.3540520000     1.2638100000 
 N        3.6416930000    -0.6198020000     2.2120300000 
 C        3.0502610000     0.3041160000    -1.0846290000 
 N        3.6475720000     0.5693940000    -2.0311890000 
 H        0.4112590000    -0.2755030000     0.9834360000 
 H        0.4137930000     0.2273850000    -0.8109400000 
*
