! RI-MP2 RIJK def2-TZVP def2-TZVP/C def2-TZVP/JK TIGHTSCF
% maxcore 2000
% mp2 density relaxed end
*xyz 0 1
 C        1.0315310000     0.0604980000     0.0684040000 
 N        2.4734540000     0.0694790000     0.0723980000 
 C        3.2866420000     1.1711780000     0.0754860000 
 C        4.5647170000     0.6875880000     0.0787070000 
 N        4.5558830000    -0.6775000000     0.0776210000 
 C        3.2908540000    -1.0119690000     0.0738540000 
 H        0.6699940000     1.0873610000     0.0680290000 
 H        0.6429550000    -0.4427420000     0.9559180000 
 H        0.6478850000    -0.4416520000    -0.8218670000 
 H        2.8867450000     2.1721070000     0.0751230000 
 H        5.4861300000     1.2493320000     0.0817070000 
 H        2.9037090000    -2.0210790000     0.0720100000 
*
