! RI-MP2 RIJK def2-TZVP def2-TZVP/C def2-TZVP/JK TIGHTSCF
% maxcore 2000
% mp2 density relaxed end
*xyz 0 1
 C        2.1538180000     0.6351410000    -0.2360890000 
 N        3.4094370000     0.4860740000    -0.3434510000 
 N        3.9094630000    -0.7587920000    -0.4672330000 
 C        5.2688030000    -0.9263100000    -0.0766350000 
 C        6.0506600000    -1.9754760000    -0.8016680000 
 C        6.3236880000    -0.5245480000    -1.0529540000 
 H        1.7635630000     1.6444300000    -0.1886370000 
 H        1.4512090000    -0.2047500000    -0.2021460000 
 H        3.2883420000    -1.5065300000    -0.1676150000 
 H        5.4940000000    -0.7782640000     0.9785000000 
 H        5.5294870000    -2.5245810000    -1.5758630000 
 H        6.7711640000    -2.5521670000    -0.2360650000 
 H        5.9777500000    -0.1021580000    -1.9868950000 
 H        7.2347150000    -0.0924600000    -0.6598410000 
*
