! RI-MP2 RIJK def2-TZVP def2-TZVP/C def2-TZVP/JK TIGHTSCF
% maxcore 2000
% mp2 density relaxed end
*xyz 0 1
 N        1.3164410000    -0.6970150000     0.1057010000 
 C        2.6442760000    -0.0992000000     0.1700480000 
 C        3.0280060000     0.4518600000    -1.1627790000 
 C        4.1283710000     0.1230090000    -1.8287100000 
 C        4.5121030000     0.6740890000    -3.1615270000 
 N        5.8398390000     1.2721230000    -3.0970710000 
 H        1.0194680000    -1.0103750000     1.0211380000 
 H        1.3288200000    -1.5072040000    -0.5018320000 
 H        3.4339370000    -0.7819750000     0.5185610000 
 H        2.5945260000     0.7230520000     0.8940950000 
 H        2.3211340000     1.1557720000    -1.6000120000 
 H        4.8352340000    -0.5809140000    -1.3914810000 
 H        3.7223650000     1.3567380000    -3.5101100000 
 H        4.5620490000    -0.1481650000    -3.8855580000 
 H        5.8272920000     2.0822130000    -2.4894070000 
 H        6.1367480000     1.5857010000    -4.0124560000 
*
