! RI-MP2 RIJK def2-TZVP def2-TZVP/C def2-TZVP/JK TIGHTSCF
% maxcore 2000
% mp2 density relaxed end
*xyz 0 1
 C        0.7284680000     1.2939710000    -0.6112610000 
 C       -0.3243400000     0.9476030000     0.4003360000 
 O       -1.3033610000     0.0389250000    -0.0319340000 
 C       -0.7323040000    -1.2310360000     0.1748470000 
 O        0.6511540000    -1.0968010000    -0.0480150000 
 C        0.9612060000     0.2006040000     0.3897850000 
 H        1.2697720000     2.2236530000    -0.4774440000 
 H        0.5434510000     0.9899710000    -1.6337180000 
 H       -0.6322670000     1.6359320000     1.1780800000 
 H       -1.1475020000    -1.9353440000    -0.5471240000 
 H       -0.9201710000    -1.5689400000     1.2064750000 
 H        1.7211840000     0.2683530000     1.1587730000 
*
