! RI-MP2 RIJK def2-TZVP def2-TZVP/C def2-TZVP/JK TIGHTSCF
% maxcore 2000
% mp2 density relaxed end
*xyz 0 1
 C        1.0573990000    -0.0294230000     0.1056850000 
 C        2.2516440000     0.0585860000     0.0215520000 
 C        3.6915440000     0.1915150000    -0.0849020000 
 C        4.3851240000     1.2345480000     0.8123500000 
 C        5.2302090000     0.0504080000     1.2818460000 
 O        4.4253670000    -0.8784070000     0.5380890000 
 H       -0.0007020000    -0.1169990000     0.1821700000 
 H        3.9667590000     0.2801970000    -1.1435650000 
 H        3.7286580000     1.6504450000     1.5739460000 
 H        4.9034980000     2.0364370000     0.2899820000 
 H        5.2148060000    -0.1675890000     2.3526740000 
 H        6.2668060000     0.0546820000     0.9286620000 
*
