! RI-MP2 RIJK def2-TZVP def2-TZVP/C def2-TZVP/JK TIGHTSCF
% maxcore 2000
% mp2 density relaxed end
*xyz 0 1
 C        1.0661970000     0.2511140000     0.1937920000 
 C        2.3914670000     0.1654000000     0.0701490000 
 C        3.0825170000    -1.0743440000    -0.1869520000 
 C        4.4113800000    -1.2003940000    -0.3173860000 
 C        5.0171700000    -2.5014740000    -0.5773140000 
 O        6.2015710000    -2.6923980000    -0.7062390000 
 H        0.5733210000     1.1959150000     0.3869320000 
 H        0.4346030000    -0.6268910000     0.1046050000 
 H        3.0025210000     1.0594550000     0.1636240000 
 H        2.4660430000    -1.9682080000    -0.2799530000 
 H        5.0808950000    -0.3491320000    -0.2356490000 
 H        4.2926350000    -3.3424320000    -0.6527990000 
*
