! RI-MP2 RIJK def2-TZVP def2-TZVP/C def2-TZVP/JK TIGHTSCF
% maxcore 2000
% mp2 density relaxed end
*xyz 0 1
 C        0.8796010000     0.0083050000    -0.0449550000 
 C        2.4056700000     0.0438750000    -0.0671100000 
 C        2.9484360000    -0.3376520000    -1.4492910000 
 O        4.3494570000    -0.3573160000    -1.5032990000 
 C        2.9249990000     1.3518830000     0.3127880000 
 C        3.3784390000     2.4327920000     0.5784640000 
 H        0.5218590000    -0.9886630000    -0.3126210000 
 H        0.4650230000     0.7261420000    -0.7559680000 
 H        0.4966390000     0.2556500000     0.9456790000 
 H        2.7951720000    -0.6896030000     0.6490670000 
 H        2.5244760000     0.3478860000    -2.1971760000 
 H        2.6130480000    -1.3486870000    -1.6929550000 
 H        4.6633580000     0.5124790000    -1.2323850000 
 H        3.7656140000     3.3909090000     0.8340520000 
*
