! RI-MP2 RIJK def2-TZVP def2-TZVP/C def2-TZVP/JK TIGHTSCF
% maxcore 2000
% mp2 density relaxed end
*xyz 0 1
 C        0.9877730000     0.0450600000     0.3552710000 
 C        2.3218750000     0.0439200000    -0.3853120000 
 C        2.6732490000    -1.3222790000    -0.9568170000 
 O        3.9481760000    -1.3620800000    -1.5425080000 
 C        2.3205660000     1.1091220000    -1.4456580000 
 O        2.6307910000     0.9387310000    -2.5964540000 
 H        1.0227000000    -0.6361540000     1.2073070000 
 H        0.1746040000    -0.2770460000    -0.3005040000 
 H        0.7396330000     1.0394130000     0.7339270000 
 H        3.1128030000     0.3415230000     0.3199480000 
 H        1.8935940000    -1.6199160000    -1.6730050000 
 H        2.6719090000    -2.0604490000    -0.1505600000 
 H        3.9109770000    -0.7807830000    -2.3105220000 
 H        2.0003710000     2.1167380000    -1.1002030000 
*
