! RI-MP2 RIJK def2-TZVP def2-TZVP/C def2-TZVP/JK TIGHTSCF
% maxcore 2000
% mp2 density relaxed end
*xyz 0 1
 C        1.4578580000     0.7968960000     0.4209060000 
 O        2.8161890000     0.4180400000     0.2076480000 
 C        3.2157180000     0.4549570000    -1.0639430000 
 O        2.5252610000     0.7751870000    -1.9929720000 
 C        4.6004350000     0.0565860000    -1.1868860000 
 C        5.7443790000    -0.2653000000    -1.3466780000 
 H        1.2936320000     0.7089480000     1.4920510000 
 H        0.7859490000     0.1345960000    -0.1264800000 
 H        1.2909500000     1.8227510000     0.0898570000 
 H        6.7607080000    -0.5514620000    -1.4875140000 
*
