! RI-MP2 RIJK def2-TZVP def2-TZVP/C def2-TZVP/JK TIGHTSCF
% maxcore 2000
% mp2 density relaxed end
*xyz 0 1
 O        1.0168490000     0.2218220000    -0.0704610000 
 C        2.3983170000     0.0889150000    -0.0364750000 
 C        3.0902140000    -0.6755500000    -1.1116640000 
 C        3.1416690000     0.8412740000    -1.0984160000 
 C        4.3606900000     1.5205420000    -0.7874880000 
 C        5.3891360000     2.0832050000    -0.5234160000 
 H        0.6263570000    -0.6151140000     0.1964730000 
 H        2.8463620000     0.0868220000     0.9541310000 
 H        2.4709020000    -1.1224470000    -1.8792460000 
 H        4.0004220000    -1.2073820000    -0.8669620000 
 H        2.4994800000     1.3301350000    -1.8231280000 
 H        6.2972030000     2.5865710000    -0.2908480000 
*
