! RI-MP2 RIJK def2-TZVP def2-TZVP/C def2-TZVP/JK TIGHTSCF
% maxcore 2000
% mp2 density relaxed end
*xyz 0 1
 O        3.2963960000     0.3483270000    -0.8347120000 
 C        2.2955610000    -0.1448520000     0.0256610000 
 C        2.8844020000    -1.2100770000     0.9046020000 
 C        1.9443960000    -1.8539090000     1.9282140000 
 C        2.3727250000    -3.1673410000     1.2712920000 
 O        3.0835140000    -2.4710420000     0.2400940000 
 H        2.8847740000     0.8867330000    -1.5134460000 
 H        1.4555050000    -0.5781090000    -0.5338810000 
 H        1.9004640000     0.6503440000     0.6783070000 
 H        3.8291740000    -0.8445110000     1.3267350000 
 H        0.8939820000    -1.6015770000     1.7732030000 
 H        2.1986190000    -1.7197160000     2.9782590000 
 H        1.5779100000    -3.8005520000     0.8668640000 
 H        3.0450780000    -3.7826090000     1.8799170000 
*
