! RI-MP2 RIJK def2-TZVP def2-TZVP/C def2-TZVP/JK TIGHTSCF
% maxcore 2000
% mp2 density relaxed end
*xyz 0 1
 C        0.9137560000    -0.0985140000     0.1118760000 
 C        2.4208340000    -0.0954910000     0.0174730000 
 O        2.8451610000    -0.1798670000    -1.3256670000 
 C        3.1765440000     0.9727370000     0.8453270000 
 N        4.0584400000    -0.0737450000     1.3836670000 
 C        3.1894990000    -1.1357760000     0.8505970000 
 H        0.4925990000     0.7798600000    -0.3896350000 
 H        0.5783560000    -0.0785830000     1.1508010000 
 H        0.5079250000    -0.9919820000    -0.3688160000 
 H        2.4453180000     0.5448760000    -1.8152660000 
 H        2.5362050000     1.4676560000     1.5858900000 
 H        3.6970890000     1.7340590000     0.2559800000 
 H        4.1652580000    -0.0692700000     2.3881170000 
 H        2.5552670000    -1.6350070000     1.5924830000 
 H        3.7149470000    -1.8890530000     0.2584650000 
*
