! RI-MP2 RIJK def2-TZVP def2-TZVP/C def2-TZVP/JK TIGHTSCF
% maxcore 2000
% mp2 density relaxed end
*xyz 0 1
 C        1.0860090000    -0.1076710000    -0.0384550000 
 C        2.5800330000    -0.0970470000     0.0057220000 
 N        3.1204910000    -1.1745590000     0.6217320000 
 C        3.2864000000     0.9304610000    -0.5406840000 
 C        4.7190610000     1.0361340000    -0.5512400000 
 O        5.3505420000     1.9513140000    -1.0373410000 
 H        0.7256880000    -0.9942730000    -0.5691500000 
 H        0.7042620000     0.7773550000    -0.5422820000 
 H        0.6739640000    -0.1375860000     0.9748850000 
 H        2.5298660000    -1.8905690000     0.9988880000 
 H        4.1118330000    -1.2876270000     0.7173460000 
 H        2.7390230000     1.7392820000    -1.0078530000 
 H        5.2795360000     0.1998770000    -0.0679890000 
*
