! RI-MP2 RIJK def2-TZVP def2-TZVP/C def2-TZVP/JK TIGHTSCF
% maxcore 2000
% mp2 density relaxed end
*xyz 0 1
 C        2.2413770000    -1.3954000000    -0.5216820000 
 C        2.8318790000    -0.0225960000    -0.3937710000 
 O        2.8875200000     0.7539870000    -1.3203260000 
 C        3.3549460000     0.3604680000     0.9484740000 
 C        4.7362570000     0.9203510000     0.9718110000 
 N        3.5941870000     1.7734730000     1.1942400000 
 H        2.0001510000    -1.6071610000    -1.5614520000 
 H        1.3322850000    -1.4576410000     0.0845260000 
 H        2.9338330000    -2.1466880000    -0.1320360000 
 H        3.0084470000    -0.2178870000     1.7987450000 
 H        5.2514550000     0.9803560000     0.0182590000 
 H        5.3586320000     0.7290220000     1.8390900000 
 H        3.3768320000     2.2633070000     0.3271320000 
*
