! RI-MP2 RIJK def2-TZVP def2-TZVP/C def2-TZVP/JK TIGHTSCF
% maxcore 2000
% mp2 density relaxed end
*xyz 0 1
 C        1.0552200000     0.0582270000    -0.2900690000 
 C        2.5600310000     0.1152830000    -0.0975550000 
 O        3.2081210000    -0.9359880000    -0.7937620000 
 C        3.1292460000     1.4191260000    -0.6004980000 
 C        4.5261990000     1.5229600000    -1.0493830000 
 N        3.4267050000     1.5892980000    -2.0152970000 
 H        0.6479960000    -0.8861850000     0.0840550000 
 H        0.8014460000     0.1521950000    -1.3484790000 
 H        0.5641690000     0.8674750000     0.2553530000 
 H        2.7878360000     0.0420200000     0.9771240000 
 H        2.7458220000    -1.7551380000    -0.6041410000 
 H        2.6699220000     2.2891280000    -0.1372300000 
 H        5.1250910000     0.6194960000    -1.0249500000 
 H        5.0699430000     2.4507230000    -0.9075110000 
 H        3.3478630000     0.6818880000    -2.4665350000 
*
