! RI-MP2 RIJK def2-TZVP def2-TZVP/C def2-TZVP/JK TIGHTSCF
% maxcore 2000
% mp2 density relaxed end
*xyz 0 1
 C        1.2809960000     0.0918170000    -0.3565700000 
 N        2.6286820000    -0.3024410000    -0.7026140000 
 C        3.4363390000    -0.6466840000     0.4455320000 
 C        4.7873970000    -1.1317080000     0.0096270000 
 C        5.9436820000    -0.2398780000    -0.0320570000 
 O        5.7888930000    -1.1880690000     1.0098320000 
 H        0.7385110000     0.3828060000    -1.2580780000 
 H        1.2269380000     0.9252180000     0.3635040000 
 H        0.7549720000    -0.7591330000     0.0848700000 
 H        3.0815690000     0.4362770000    -1.2264470000 
 H        2.9292030000    -1.4527850000     0.9886550000 
 H        3.5715820000     0.1808850000     1.1640610000 
 H        4.7754290000    -1.9832940000    -0.6688950000 
 H        5.8242210000     0.7993240000     0.2687960000 
 H        6.7572870000    -0.4383350000    -0.7253250000 
*
