! RI-MP2 RIJK def2-TZVP def2-TZVP/C def2-TZVP/JK TIGHTSCF
% maxcore 2000
% mp2 density relaxed end
*xyz 0 1
 N        2.5743150000    -0.7596280000     1.1365540000 
 C        2.0631670000     0.0663640000     0.2041870000 
 O        0.9038820000     0.0620380000    -0.1447170000 
 C        3.0466430000     1.0558700000    -0.4270980000 
 C        4.4170720000     1.0023370000     0.0413830000 
 C        5.5451730000     0.9358150000     0.4481740000 
 H        1.9627700000    -1.4247600000     1.5761850000 
 H        3.5455660000    -0.7158030000     1.3915300000 
 H        2.6251260000     2.0517560000    -0.2632630000 
 H        3.0043100000     0.8819650000    -1.5061170000 
 H        6.5505860000     0.8925560000     0.7956710000 
*
