! RI-MP2 RIJK def2-TZVP def2-TZVP/C def2-TZVP/JK TIGHTSCF
% maxcore 2000
% mp2 density relaxed end
*xyz 0 1
 O        1.0445840000    -0.0645580000     0.0615400000 
 C        2.2363930000    -0.0125340000     0.0576020000 
 C        3.0967610000     1.2239450000     0.0567270000 
 C        4.3536620000     0.7967390000     0.0513630000 
 C        4.2816320000    -0.6969330000     0.0484420000 
 N        3.0993310000    -1.1726440000     0.0516920000 
 H        2.7026380000     2.2285610000     0.0601310000 
 H        5.2671350000     1.3748300000     0.0492360000 
 H        5.1548650000    -1.3439050000     0.0438660000 
*
