! RI-MP2 RIJK def2-TZVP def2-TZVP/C def2-TZVP/JK TIGHTSCF
% maxcore 2000
% mp2 density relaxed end
*xyz 0 1
 O        1.0373520000    -0.0753330000     0.0056810000 
 C        2.4425550000    -0.0699510000    -0.0872700000 
 C        2.9472070000    -0.8648430000    -1.2065250000 
 C        3.3333920000    -1.5606740000    -2.1023060000 
 C        2.8836320000     1.3279620000    -0.2028980000 
 N        3.2583340000     2.4109800000    -0.2650530000 
 H        0.7368520000    -0.9720310000    -0.1723110000 
 H        2.8958330000    -0.4598340000     0.8376610000 
 H        3.6809440000    -2.1662760000    -2.9067780000 
*
