! RI-MP2 RIJK def2-TZVP def2-TZVP/C def2-TZVP/JK TIGHTSCF
% maxcore 2000
% mp2 density relaxed end
*xyz 0 1
 O        1.4158810000     0.6713490000    -0.4503540000 
 C        2.6569470000     0.0826330000    -0.1726430000 
 C        2.9273120000    -1.0021530000    -1.1750960000 
 C        2.0993810000    -1.3313900000    -2.1630510000 
 C        4.1701650000    -1.6851140000    -1.0002960000 
 N        5.1801230000    -2.2113470000    -0.8263150000 
 H        1.2533450000     1.3624510000     0.1948900000 
 H        2.6832160000    -0.3610840000     0.8332100000 
 H        3.4770040000     0.8135390000    -0.2237950000 
 H        1.1624470000    -0.8033610000    -2.2802030000 
 H        2.3459590000    -2.1233320000    -2.8579550000 
*
