! RI-MP2 RIJK def2-TZVP def2-TZVP/C def2-TZVP/JK TIGHTSCF
% maxcore 2000
% mp2 density relaxed end
*xyz 0 1
 O        1.9186250000     0.2949530000     2.7187250000 
 C        2.8280540000    -0.3436960000     2.2683330000 
 C        3.1447600000    -0.4309250000     0.7962030000 
 N        4.5205360000    -0.8103120000     0.5857670000 
 C        5.0591140000    -0.5466020000    -0.7309090000 
 C        5.4638190000     0.2809490000     0.4263590000 
 H        3.5003840000    -0.9425030000     2.9189520000 
 H        2.8552680000     0.5165760000     0.3153530000 
 H        2.4963110000    -1.2150610000     0.3829230000 
 H        4.4016730000    -0.0860180000    -1.4640580000 
 H        5.7301680000    -1.3015420000    -1.1254060000 
 H        5.0747370000     1.2952970000     0.4715700000 
 H        6.4332430000     0.1377750000     0.8898990000 
*
