! RI-MP2 RIJK def2-TZVP def2-TZVP/C def2-TZVP/JK TIGHTSCF
% maxcore 2000
% mp2 density relaxed end
*xyz 0 1
 C        0.8535450000     0.0439070000    -0.1657370000 
 C        2.1693080000     0.0497260000     0.0957620000 
 C        2.9225460000     1.2886020000     0.2451820000 
 C        4.2301900000     1.3034070000     0.5051300000 
 C        5.0394170000     0.0624190000     0.6663380000 
 C        4.2406730000    -1.1856810000     0.5077690000 
 C        2.9329530000    -1.1824420000     0.2478020000 
 H        0.2973110000     0.9674530000    -0.2764920000 
 H        0.3051110000    -0.8845240000    -0.2745280000 
 H        2.3774200000     2.2213340000     0.1365670000 
 H        4.7490640000     2.2516780000     0.6080280000 
 H        5.5353850000     0.0655490000     1.6486640000 
 H        5.8735270000     0.0651710000    -0.0514390000 
 H        4.7675160000    -2.1293270000     0.6126730000 
 H        2.3957040000    -2.1199600000     0.1411700000 
*
