! RI-MP2 RIJK def2-TZVP def2-TZVP/C def2-TZVP/JK TIGHTSCF
% maxcore 2000
% mp2 density relaxed end
*xyz 0 1
 C        1.0292270000     0.0693650000     0.1098400000 
 C        2.2313220000     0.0095280000     0.0768030000 
 C        3.6455330000    -0.0060260000     0.0372480000 
 C        4.4262680000    -1.0901510000    -0.0318430000 
 C        5.8796630000    -0.7371180000     0.0036430000 
 C        5.8778360000     0.7784460000    -0.2525030000 
 C        4.4709810000     1.2567320000     0.1317400000 
 H       -0.0337110000     0.1092230000     0.1383640000 
 H        4.0546610000    -2.1071980000    -0.0642630000 
 H        6.4698090000    -1.2895460000    -0.7331130000 
 H        6.3038450000    -0.9874040000     0.9854350000 
 H        6.0406360000     0.9610990000    -1.3175570000 
 H        6.6656150000     1.3019510000     0.2912700000 
 H        4.0952490000     2.0478130000    -0.5210500000 
 H        4.4293550000     1.6466980000     1.1556960000 
*
