! RI-MP2 RIJK def2-TZVP def2-TZVP/C def2-TZVP/JK TIGHTSCF
% maxcore 2000
% mp2 density relaxed end
*xyz 0 1
 C        1.3711640000    -1.0457780000    -0.2778680000 
 C        2.2110910000    -0.0737700000     0.0340330000 
 C        2.9792040000     0.7278260000    -0.9955010000 
 C        2.6112930000     2.1438570000    -0.9314410000 
 C        2.2869150000     3.2961990000    -0.8666850000 
 C        4.4222220000     0.5461260000    -0.8243780000 
 C        5.5988000000     0.3743180000    -0.6712310000 
 H        0.8398530000    -1.5965010000     0.4890970000 
 H        1.1826350000    -1.3278690000    -1.3088360000 
 H        2.3950200000     0.2032480000     1.0673470000 
 H        2.7059630000     0.3515220000    -1.9896290000 
 H        2.0039840000     4.3207360000    -0.8113130000 
 H        6.6446550000     0.2270860000    -0.5396940000 
*
