! RI-MP2 RIJK def2-TZVP def2-TZVP/C def2-TZVP/JK TIGHTSCF
% maxcore 2000
% mp2 density relaxed end
*xyz 0 1
 C        1.0785730000     0.0120460000     0.0228470000 
 C        2.5742260000     0.0323050000    -0.0533390000 
 C        3.2986350000     1.2141780000    -0.1269330000 
 C        4.6818600000     1.1658710000    -0.1952620000 
 C        5.3012820000    -0.0731370000    -0.1877370000 
 N        4.6313620000    -1.2191210000    -0.1180270000 
 C        3.3086710000    -1.1528200000    -0.0533150000 
 H        0.6694860000     1.0233170000     0.0114560000 
 H        0.7354270000    -0.4789990000     0.9371800000 
 H        0.6466960000    -0.5346900000    -0.8194330000 
 H        2.7808750000     2.1683550000    -0.1306760000 
 H        5.2712800000     2.0733240000    -0.2534460000 
 H        6.3839370000    -0.1501370000    -0.2399920000 
 H        2.7867800000    -2.1066930000     0.0028960000 
*
