! RI-MP2 RIJK def2-TZVP def2-TZVP/C def2-TZVP/JK TIGHTSCF
% maxcore 2000
% mp2 density relaxed end
*xyz 0 1
 C        1.1429260000     0.2857070000     0.4447120000 
 C        2.3846030000    -0.2638060000    -0.2248400000 
 N        2.1923750000    -1.6422770000    -0.6743540000 
 C        3.0537460000    -1.8581440000    -1.8314060000 
 C        3.2694550000    -0.4949360000    -2.4570850000 
 N        2.0873050000     0.3251280000    -2.6807640000 
 C        2.8513780000     0.5012970000    -1.4537110000 
 H        0.8417130000    -0.3487120000     1.2812300000 
 H        0.3084300000     0.3419240000    -0.2617890000 
 H        1.3213610000     1.2920560000     0.8280900000 
 H        3.2118000000    -0.2440650000     0.4991960000 
 H        1.2220590000    -1.8040960000    -0.9064710000 
 H        2.6064610000    -2.5881190000    -2.5123690000 
 H        4.0239490000    -2.2611230000    -1.5152280000 
 H        4.0938150000    -0.3400060000    -3.1447000000 
 H        1.2417410000    -0.2117450000    -2.5021280000 
 H        3.3381750000     1.4633260000    -1.3314720000 
*
