! RI-MP2 RIJK def2-TZVP def2-TZVP/C def2-TZVP/JK TIGHTSCF
% maxcore 2000
% mp2 density relaxed end
*xyz 0 1
 C        1.1236530000     0.1530480000    -0.0196710000 
 C        2.6124890000     0.0857210000     0.0743750000 
 N        3.2411670000     1.1699510000     0.3151440000 
 N        4.6011040000     1.1413400000     0.4517580000 
 C        5.3204660000     0.0827020000    -0.2215400000 
 C        4.7428320000    -1.2424030000     0.2332390000 
 C        3.2560010000    -1.2648410000    -0.0946600000 
 H        0.7874830000     1.1837210000     0.0865670000 
 H        0.6524370000    -0.4552770000     0.7603690000 
 H        0.7724180000    -0.2387690000    -0.9804930000 
 H        4.9613000000     2.0653210000     0.2732780000 
 H        6.3782660000     0.1690210000     0.0371940000 
 H        5.2295210000     0.1644980000    -1.3178490000 
 H        4.8916640000    -1.3336840000     1.3124490000 
 H        5.2624240000    -2.0771240000    -0.2425540000 
 H        2.7285390000    -1.9882560000     0.5370460000 
 H        3.0879160000    -1.6025710000    -1.1250520000 
*
