! RI-MP2 RIJK def2-TZVP def2-TZVP/C def2-TZVP/JK TIGHTSCF
% maxcore 2000
% mp2 density relaxed end
*xyz 0 1
 C        0.9550980000    -0.0804760000     0.0678010000 
 C        2.1571570000    -0.0770790000     0.0710260000 
 C        3.5725240000    -0.0554380000     0.0747820000 
 C        4.3810970000     1.0550710000     0.0742060000 
 N        5.6548670000     0.5710750000     0.0788360000 
 C        5.5754110000    -0.7843370000     0.0819800000 
 N        4.3401190000    -1.1975670000     0.0796820000 
 H       -0.1087770000    -0.0931300000     0.0649730000 
 H        4.1533610000     2.1075300000     0.0709850000 
 H        6.4964570000     1.1204900000     0.0797360000 
 H        6.4516850000    -1.4154490000     0.0859030000 
*
