! RI-MP2 RIJK def2-TZVP def2-TZVP/C def2-TZVP/JK TIGHTSCF
% maxcore 2000
% mp2 density relaxed end
*xyz 0 1
 C        1.0121590000     0.0360170000     0.0654330000 
 C        2.2075070000    -0.0422180000    -0.0036250000 
 C        3.6332150000    -0.0907370000    -0.0897310000 
 N        4.3157380000    -1.1711650000    -0.0430670000 
 C        5.7170670000    -0.7725310000    -0.1647400000 
 C        5.7472830000     0.7746870000    -0.2957020000 
 N        4.3330020000     1.0745820000    -0.2308170000 
 H       -0.0496080000     0.0823930000     0.1287080000 
 H        6.1606990000    -1.2645340000    -1.0348040000 
 H        6.2708960000    -1.1187850000     0.7123470000 
 H        6.1871620000     1.1051300000    -1.2418830000 
 H        6.2991650000     1.2520980000     0.5200370000 
 H        3.9188960000     1.9851630000    -0.2806460000 
*
