! RI-MP2 RIJK def2-TZVP def2-TZVP/C def2-TZVP/JK TIGHTSCF
% maxcore 2000
% mp2 density relaxed end
*xyz 0 1
 C        0.8601950000     0.0044750000    -0.0617930000 
 C        2.0607760000    -0.0294850000     0.0013320000 
 C        3.4761990000    -0.0465330000     0.0391000000 
 C        4.1901320000    -0.6468390000     0.9911810000 
 C        5.6882080000    -0.6748160000     0.9910070000 
 C        6.2546090000    -0.1499180000     2.2279730000 
 N        6.6930160000     0.2590290000     3.2083950000 
 H       -0.2029480000     0.0312450000    -0.1081300000 
 H        3.9861470000     0.4695140000    -0.7719240000 
 H        3.6887820000    -1.1536540000     1.8092120000 
 H        6.0867460000    -0.0994900000     0.1511770000 
 H        6.0483580000    -1.7044370000     0.8760720000 
*
