! RI-MP2 RIJK def2-TZVP def2-TZVP/C def2-TZVP/JK TIGHTSCF
% maxcore 2000
% mp2 density relaxed end
*xyz 0 1
 C        1.0387090000    -0.0893520000     0.0401290000 
 C        2.5532880000     0.1090170000     0.0516230000 
 C        2.9930340000     1.1862220000    -0.8179320000 
 C        3.3232360000     2.0992630000    -1.5337720000 
 C        3.7697490000     3.1127180000    -2.4146160000 
 N        3.3620640000     4.3203890000    -2.3142700000 
 N        3.7858720000     5.2062480000    -3.2332360000 
 H        0.7570530000    -0.9041100000     0.7105590000 
 H        0.6868750000    -0.3314990000    -0.9639640000 
 H        0.5272850000     0.8178160000     0.3655790000 
 H        3.0523390000    -0.8177820000    -0.2513340000 
 H        2.8912910000     0.3160780000     1.0732670000 
 H        4.4805460000     2.8179240000    -3.1967560000 
 H        3.7351210000     6.1514570000    -2.8913680000 
 H        4.6559370000     4.9899110000    -3.7107080000 
*
