! RI-MP2 RIJK def2-TZVP def2-TZVP/C def2-TZVP/JK TIGHTSCF
% maxcore 2000
% mp2 density relaxed end
*xyz 0 1
 C        1.3866830000    -0.6275400000     1.5363460000 
 C        2.4694000000    -0.4385140000     1.0503200000 
 C        3.7092310000    -0.2009610000     0.3984220000 
 N        4.8079910000    -0.2619860000     1.0361830000 
 N        5.9103830000     0.0080490000     0.1940950000 
 C        7.0792630000    -0.7571610000     0.6504470000 
 C        6.9713380000     0.6696440000     0.9667760000 
 H        0.4366330000    -0.7991310000     1.9850290000 
 H        3.6926550000     0.0360270000    -0.6679050000 
 H        7.7194430000    -1.1011680000    -0.1528290000 
 H        6.8989590000    -1.4609400000     1.4544520000 
 H        7.5295830000     1.4073960000     0.4033010000 
 H        6.7176270000     0.9363940000     1.9859520000 
*
