! RI-MP2 RIJK def2-TZVP def2-TZVP/C def2-TZVP/JK TIGHTSCF
% maxcore 2000
% mp2 density relaxed end
*xyz 0 1
 C        0.9169330000     0.0399150000    -0.0771310000 
 N        2.3512840000     0.0189610000    -0.0708070000 
 C        3.1634230000     1.1015220000    -0.0679890000 
 C        4.4707380000     0.6743090000    -0.0619530000 
 C        4.4470110000    -0.7443280000    -0.0610850000 
 N        5.5498100000    -1.5672270000    -0.0557520000 
 C        3.1210050000    -1.1227150000    -0.0666350000 
 H        0.5757440000     1.0746380000    -0.0793020000 
 H        0.5108460000    -0.4558750000     0.8094360000 
 H        0.5186550000    -0.4570270000    -0.9665920000 
 H        2.7560070000     2.1004350000    -0.0704700000 
 H        5.3460110000     1.3058580000    -0.0585570000 
 H        6.4706090000    -1.1802670000    -0.0513110000 
 H        5.4543750000    -2.5617730000    -0.0548900000 
 H        2.6674590000    -2.1010150000    -0.0679610000 
*
