! RI-MP2 RIJK def2-TZVP def2-TZVP/C def2-TZVP/JK TIGHTSCF
% maxcore 2000
% mp2 density relaxed end
*xyz 0 1
 N        0.9403900000     0.0799540000     0.0615300000 
 C        2.3059620000     0.0970050000    -0.0369310000 
 C        3.0065920000     1.3068720000    -0.0838160000 
 C        4.3865670000     1.3168160000    -0.1832820000 
 C        5.1071930000     0.1319820000    -0.2387970000 
 C        4.4157080000    -1.0704840000    -0.1925510000 
 C        3.0359100000    -1.0949990000    -0.0931410000 
 H        0.4178740000     0.9324620000     0.1013490000 
 H        0.4388420000    -0.7853390000     0.0946750000 
 H        2.4583030000     2.2428590000    -0.0414710000 
 H        4.9056750000     2.2685820000    -0.2178550000 
 H        6.1872700000     0.1454690000    -0.3166340000 
 H        4.9578900000    -2.0089980000    -0.2344620000 
 H        2.5106360000    -2.0443910000    -0.0581150000 
*
