! RI-MP2 RIJK def2-TZVP def2-TZVP/C def2-TZVP/JK TIGHTSCF
% maxcore 2000
% mp2 density relaxed end
*xyz 0 1
 N        1.1543720000     0.0812870000     0.0045020000 
 C        2.4220530000     0.0473010000    -0.0077990000 
 N        3.3414690000    -0.9735280000     0.0336740000 
 C        4.6406440000    -0.3003340000    -0.0149750000 
 C        4.3900340000     0.7412810000    -1.1256440000 
 C        3.3526490000     1.2457500000    -0.0787650000 
 C        4.4136930000     0.8482860000     0.9902550000 
 H        0.7573640000    -0.8562490000     0.0563160000 
 H        3.1714770000    -1.9587420000     0.0848840000 
 H        5.4940560000    -0.9748660000     0.0095970000 
 H        4.0162980000     0.3716330000    -2.0815640000 
 H        5.2148260000     1.4417790000    -1.2611700000 
 H        2.8722230000     2.2182850000    -0.1225770000 
 H        4.0617990000     0.5773700000     1.9866860000 
 H        5.2405150000     1.5579470000     1.0359810000 
*
