! RI-MP2 RIJK def2-TZVP def2-TZVP/C def2-TZVP/JK TIGHTSCF
% maxcore 2000
% mp2 density relaxed end
*xyz 0 1
 N        1.5159300000     0.0616070000    -0.9613380000 
 C        2.4652640000     0.1144310000    -0.1128920000 
 N        3.0338320000     1.2816030000     0.2828550000 
 C        4.1231690000     1.3878950000     1.2511260000 
 C        4.3993780000     2.9050400000     1.3510000000 
 C        3.4038350000     3.5031770000     0.3951790000 
 C        2.6728820000     2.5446620000    -0.1674270000 
 H        1.2374200000    -0.9006200000    -1.1161870000 
 H        2.9161940000    -0.7550080000     0.3790450000 
 H        5.0002720000     0.8365090000     0.9013340000 
 H        3.8218630000     0.9644810000     2.2131910000 
 H        5.4302820000     3.1443820000     1.0730040000 
 H        4.2592650000     3.2721270000     2.3722730000 
 H        3.3032810000     4.5599890000     0.1998820000 
 H        1.8755230000     2.6153350000    -0.8919440000 
*
