! RI-MP2 RIJK def2-TZVP def2-TZVP/C def2-TZVP/JK TIGHTSCF
% maxcore 2000
% mp2 density relaxed end
*xyz 0 1
 N        0.9040790000     0.0153390000     0.0422090000 
 N        2.2158800000    -0.0256790000     0.1101480000 
 C        2.9030470000     0.5363710000    -0.8202460000 
 C        4.3085940000     0.5207910000    -0.7944710000 
 C        5.5203590000     0.5480730000    -0.8395920000 
 C        6.8788220000     0.5700010000    -0.8758760000 
 C        8.0854660000     0.5904940000    -0.9097640000 
 H        0.3979690000    -0.4309270000     0.7811950000 
 H        0.4125980000     0.4719640000    -0.7134460000 
 H        2.4188370000     1.0445650000    -1.6614920000 
 H        9.1489500000     0.6076090000    -0.9380650000 
*
