! RI-MP2 RIJK def2-TZVP def2-TZVP/C def2-TZVP/JK TIGHTSCF
% maxcore 2000
% mp2 density relaxed end
*xyz 0 1
 C        1.1629550000    -0.5694210000    -0.1045370000 
 O        2.1383810000     0.5241150000    -0.3051200000 
 C        3.0163120000    -0.4274370000    -0.7780840000 
 C        4.2091180000    -0.8013110000    -1.2818610000 
 O        4.1251240000    -2.1654820000    -1.4564440000 
 C        2.8975320000    -2.6057270000    -1.0625960000 
 C        2.1861410000    -1.5447100000    -0.6355490000 
 H        0.2774120000    -0.4043040000    -0.7190330000 
 H        0.9036700000    -0.6565880000     0.9510340000 
 H        5.1389360000    -0.3398310000    -1.5608290000 
 H        2.7347190000    -3.6658130000    -1.1616810000 
*
