! RI-MP2 RIJK def2-TZVP def2-TZVP/C def2-TZVP/JK TIGHTSCF
% maxcore 2000
% mp2 density relaxed end
*xyz 0 1
 C       -1.6339080000     0.8245360000     0.4201640000 
 C       -1.0579420000    -0.3737550000    -0.2833740000 
 C       -0.2262680000    -1.3588360000     0.4989230000 
 O        1.1283640000    -1.3251120000     0.0805510000 
 C        1.6859380000    -0.0323940000     0.0086990000 
 O        0.8078810000     0.9793750000     0.4139430000 
 C       -0.3655640000     0.9520800000    -0.3406220000 
 H       -1.5652390000     0.8583050000     1.5009560000 
 H       -2.5182610000     1.2841940000    -0.0021890000 
 H       -1.5549860000    -0.7378660000    -1.1744370000 
 H       -0.5537130000    -2.3850380000     0.3301890000 
 H       -0.3000670000    -1.1535600000     1.5736470000 
 H        2.0107190000     0.1347350000    -1.0292480000 
 H        2.5468610000     0.0277220000     0.6808850000 
 H       -0.3323960000     1.5283150000    -1.2622580000 
*
