! RI-MP2 RIJK def2-TZVP def2-TZVP/C def2-TZVP/JK TIGHTSCF
% maxcore 2000
% mp2 density relaxed end
*xyz 0 1
 C        1.0955930000     0.0766530000     0.5241020000 
 C        2.3139590000    -0.0517170000     0.0148840000 
 C        3.0110120000    -1.3508710000    -0.3072290000 
 O        4.4052200000    -1.0794910000    -0.2959250000 
 C        4.5881790000     0.2945230000    -0.4629110000 
 C        3.9619640000     0.9505210000    -1.6402400000 
 C        3.2845640000     1.0173320000    -0.2791300000 
 H        0.4930450000    -0.7894420000     0.7738290000 
 H        0.6595730000     1.0515680000     0.7074970000 
 H        2.7067690000    -1.7162270000    -1.2975380000 
 H        2.8047210000    -2.1382510000     0.4204900000 
 H        5.5279280000     0.6440190000    -0.0557130000 
 H        3.5166060000     0.3333400000    -2.4111930000 
 H        4.4086920000     1.8711250000    -1.9948310000 
 H        3.2028660000     1.9705070000     0.2259990000 
*
