! RI-MP2 RIJK def2-TZVP def2-TZVP/C def2-TZVP/JK TIGHTSCF
% maxcore 2000
% mp2 density relaxed end
*xyz 0 1
 C        0.8763210000    -0.0447330000    -0.0215770000 
 C        2.3565690000    -0.0049520000     0.0616790000 
 C        3.1312460000    -1.0261840000     0.4294370000 
 C        4.5947380000    -0.9604390000     0.5037050000 
 O        5.2679680000    -1.9107350000     0.8429920000 
 C        5.2353530000     0.3008650000     0.1526930000 
 C        5.7969320000     1.3248160000    -0.1295840000 
 H        0.5431850000     0.1956130000    -1.0363510000 
 H        0.4354480000     0.7135890000     0.6335000000 
 H        0.4770960000    -1.0208950000     0.2555160000 
 H        2.8392410000     0.9350520000    -0.1995120000 
 H        2.7140960000    -1.9911010000     0.7025810000 
 H        6.3111080000     2.2246030000    -0.3762910000 
*
