! RI-MP2 RIJK def2-TZVP def2-TZVP/C def2-TZVP/JK TIGHTSCF
% maxcore 2000
% mp2 density relaxed end
*xyz 0 1
 C        0.9423210000    -0.0574560000    -0.0080300000 
 C        2.3890950000    -0.0481070000     0.0017970000 
 C        3.5936260000    -0.0305950000    -0.0048640000 
 C        5.0410750000     0.0171680000    -0.0484940000 
 O        5.6227740000     0.6519320000    -0.9035580000 
 C        5.7846060000    -0.7333900000     0.9838160000 
 C        5.2085000000    -1.4468230000     1.9446520000 
 H        0.5665280000    -1.0601110000    -0.2273310000 
 H        0.5521130000     0.6266560000    -0.7647610000 
 H        0.5461770000     0.2434950000     0.9649750000 
 H        6.8633330000    -0.6543640000     0.8933300000 
 H        4.1281720000    -1.5138790000     2.0185640000 
 H        5.7959790000    -1.9819170000     2.6814250000 
*
