! RI-MP2 RIJK def2-TZVP def2-TZVP/C def2-TZVP/JK TIGHTSCF
% maxcore 2000
% mp2 density relaxed end
*xyz 0 1
 C        0.8720030000     0.0137260000     0.0505950000 
 C        2.3211790000    -0.0081200000     0.0577610000 
 C        3.5226840000    -0.0255110000     0.0608330000 
 C        4.9875580000    -0.0374070000     0.0858780000 
 O        5.5173250000     0.5716130000     1.2473860000 
 C        5.4981240000    -1.4011580000    -0.1013410000 
 C        5.9287810000    -2.5122820000    -0.2371650000 
 H        0.4645570000    -0.9993580000     0.0888910000 
 H        0.4942770000     0.4977800000    -0.8532040000 
 H        0.4885530000     0.5656320000     0.9122680000 
 H        5.3561920000     0.5784520000    -0.7423740000 
 H        5.1967680000     0.0762010000     2.0078720000 
 H        6.3113990000    -3.4980690000    -0.3595110000 
*
