! RI-MP2 RIJK def2-TZVP def2-TZVP/C def2-TZVP/JK TIGHTSCF
% maxcore 2000
% mp2 density relaxed end
*xyz 0 1
 C        0.9971860000    -0.1576690000     0.1355960000 
 C        2.2352760000     0.1535240000    -0.2465830000 
 C        2.4810320000     1.4659130000    -0.8699210000 
 O        3.5559790000     1.8379000000    -1.2664320000 
 C        3.3927840000    -0.7566960000    -0.0992880000 
 C        3.9218620000    -1.1139400000     1.2191340000 
 O        3.1378130000    -2.0259010000     0.4714330000 
 H        0.1868340000     0.5518250000     0.0051310000 
 H        0.7701400000    -1.1202880000     0.5778040000 
 H        1.5804570000     2.1099220000    -0.9568900000 
 H        4.0881790000    -0.7542920000    -0.9351920000 
 H        3.4404990000    -0.7046550000     2.1037270000 
 H        4.9724400000    -1.3729530000     1.3201700000 
*
