! RI-MP2 RIJK def2-TZVP def2-TZVP/C def2-TZVP/JK TIGHTSCF
% maxcore 2000
% mp2 density relaxed end
*xyz 0 1
 C        0.8474320000     0.1917060000     0.0973610000 
 C        2.3686030000     0.1095870000     0.1281350000 
 O        2.8888650000     1.0619340000     1.0154130000 
 C        2.8990160000    -1.2563070000     0.4881090000 
 C        2.2421940000    -2.4054800000     0.4186330000 
 C        2.8878980000     0.4067370000    -1.2713850000 
 O        3.6514160000     1.3078380000    -1.4889190000 
 H        0.4548330000    -0.0702140000     1.0807120000 
 H        0.4152920000    -0.4837020000    -0.6440860000 
 H        0.5425440000     1.2120810000    -0.1399490000 
 H        3.4513930000     1.6459410000     0.4826150000 
 H        3.9343800000    -1.2371480000     0.8185310000 
 H        1.2065250000    -2.4673000000     0.1043430000 
 H        2.7237740000    -3.3366510000     0.6929910000 
 H        2.5217450000    -0.2607320000    -2.0746950000 
*
