! RI-MP2 RIJK def2-TZVP def2-TZVP/C def2-TZVP/JK TIGHTSCF
% maxcore 2000
% mp2 density relaxed end
*xyz 0 1
 C        1.0080090000    -0.5693680000     0.0324420000 
 C        2.1129880000     0.4071200000    -0.2024660000 
 O        2.6226150000     0.6298800000    -1.2672180000 
 C        2.6040890000     1.1642050000     1.0499210000 
 O        2.1091110000     0.9585190000     2.1303310000 
 C        3.6708230000     2.1103360000     0.8349750000 
 C        4.5592420000     2.9011140000     0.6676000000 
 H        0.7377820000    -1.0474950000    -0.9065560000 
 H        0.1447550000    -0.0583530000     0.4660030000 
 H        1.3191370000    -1.3150350000     0.7682550000 
 H        5.3474500000     3.6029860000     0.5204110000 
*
