! RI-MP2 RIJK def2-TZVP def2-TZVP/C def2-TZVP/JK TIGHTSCF
% maxcore 2000
% mp2 density relaxed end
*xyz 0 1
 C        2.9302470000    -1.1582220000     0.3760210000 
 O        2.2121980000     0.0456560000     0.2115620000 
 C        2.9154340000     1.2018460000     0.0541150000 
 C        2.2666230000     2.3635550000    -0.1040010000 
 C        0.7884340000     2.5164060000    -0.1246400000 
 C        4.3397170000     1.1462740000     0.0614970000 
 C        5.5421320000     1.0995160000     0.0677560000 
 H        2.1789490000    -1.9395870000     0.4823450000 
 H        3.5578090000    -1.1343810000     1.2714750000 
 H        3.5584150000    -1.3750180000    -0.4926770000 
 H        2.8832680000     3.2460120000    -0.2242760000 
 H        0.2849130000     1.5594830000     0.0058090000 
 H        0.4542860000     2.9557700000    -1.0704480000 
 H        0.4545130000     3.1928130000     0.6692230000 
 H        6.6060210000     1.0682670000     0.0719080000 
*
