! RI-MP2 RIJK def2-TZVP def2-TZVP/C def2-TZVP/JK TIGHTSCF
% maxcore 2000
% mp2 density relaxed end
*xyz 0 1
 C        1.5493160000     0.1277260000     0.0356050000 
 O        2.9687910000     0.1428900000     0.1107670000 
 C        3.5108350000     1.3250190000     0.4492570000 
 O        2.8548200000     2.3100550000     0.6756300000 
 C        4.9801240000     1.2301240000     0.4977830000 
 C        5.7182960000     2.2903820000     0.8137840000 
 C        7.1993170000     2.3119390000     0.8935430000 
 H        1.2756100000    -0.8871360000    -0.2451370000 
 H        1.1951000000     0.8389280000    -0.7124270000 
 H        1.1092660000     0.3885080000     0.9995440000 
 H        5.4231330000     0.2674360000     0.2665450000 
 H        5.1885410000     3.2158270000     1.0308760000 
 H        7.6374430000     1.3406190000     0.6598560000 
 H        7.5252890000     2.6106530000     1.8950560000 
 H        7.6099180000     3.0558500000     0.2032390000 
*
