! RI-MP2 RIJK def2-TZVP def2-TZVP/C def2-TZVP/JK TIGHTSCF
% maxcore 2000
% mp2 density relaxed end
*xyz 0 1
 O        0.9955590000     0.1128710000     0.1333510000 
 C        2.4050230000    -0.0060400000     0.0783520000 
 C        2.8462170000    -1.2293570000    -0.7446690000 
 C        3.2171640000    -0.6458000000    -2.0749120000 
 C        3.2243690000     0.6827780000    -2.0582840000 
 C        2.9224500000     1.2240880000    -0.6939040000 
 O        4.0593360000     1.8324970000    -0.1034010000 
 H        0.6409880000    -0.6619970000     0.5758260000 
 H        2.8315070000    -0.0034220000     1.0880890000 
 H        2.0294880000    -1.9545740000    -0.8234900000 
 H        3.6913060000    -1.7618590000    -0.2923310000 
 H        3.4544970000    -1.2575180000    -2.9385510000 
 H        3.4706280000     1.3244660000    -2.8960150000 
 H        2.1430120000     1.9898590000    -0.6909780000 
 H        4.8276560000     1.3018100000    -0.3333860000 
*
