! RI-MP2 RIJK def2-TZVP def2-TZVP/C def2-TZVP/JK TIGHTSCF
% maxcore 2000
% mp2 density relaxed end
*xyz 0 1
 O        0.9824930000     0.0022280000    -0.0402650000 
 C        2.1825020000    -0.0955090000    -0.0278890000 
 C        3.0016620000     1.1811060000    -0.0164070000 
 O        4.4141550000     1.0953440000     0.0003160000 
 C        4.9891890000    -0.1237620000     0.0054880000 
 C        4.3694040000    -1.2976800000    -0.0032340000 
 C        2.8849680000    -1.4248870000    -0.0208740000 
 H        2.6843200000     1.7533480000     0.8611780000 
 H        2.7052690000     1.7555250000    -0.8998740000 
 H        6.0687440000    -0.0342640000     0.0184190000 
 H        4.9784440000    -2.1925180000     0.0029930000 
 H        2.5058310000    -1.9824940000     0.8445450000 
 H        2.5263390000    -1.9806270000    -0.8961780000 
*
