! RI-MP2 RIJK def2-TZVP def2-TZVP/C def2-TZVP/JK TIGHTSCF
% maxcore 2000
% mp2 density relaxed end
*xyz 0 1
 O        1.1204100000     0.1685310000     0.2874800000 
 C        2.2506380000     0.0484640000    -0.0284300000 
 O        3.1114510000     1.0008860000    -0.4732020000 
 C        4.1823560000     0.0393820000    -0.6631500000 
 C        3.2957830000    -1.0807080000    -0.0988370000 
 C        2.9971320000    -2.2220550000    -0.9257750000 
 C        2.7471110000    -3.1637510000    -1.6251420000 
 H        5.0552400000     0.3064020000    -0.0689400000 
 H        4.4325520000    -0.0594000000    -1.7181720000 
 H        3.5850220000    -1.3883960000     0.9098100000 
 H        2.5191960000    -4.0004340000    -2.2427410000 
*
