! RI-MP2 RIJK def2-TZVP def2-TZVP/C def2-TZVP/JK TIGHTSCF
% maxcore 2000
% mp2 density relaxed end
*xyz 0 1
 O        1.1280400000     0.2497350000    -0.1576880000 
 C        2.4759760000     0.2333010000    -0.1815880000 
 O        3.0692460000     0.7819890000    -1.0606870000 
 C        3.1278770000    -0.5122880000     0.9594360000 
 C        4.6485210000    -0.4898150000     0.8655070000 
 C        5.2745340000    -1.2060220000     1.9632950000 
 C        5.7728370000    -1.8022250000     2.8781590000 
 H        0.7998360000    -0.2330480000     0.6085230000 
 H        2.7627150000    -1.5450470000     0.9614140000 
 H        2.7992660000    -0.0681510000     1.9053260000 
 H        4.9963690000     0.5465720000     0.8497650000 
 H        4.9602110000    -0.9234280000    -0.0885280000 
 H        6.2260720000    -2.3282610000     3.6847660000 
*
