! RI-MP2 RIJK def2-TZVP def2-TZVP/C def2-TZVP/JK TIGHTSCF
% maxcore 2000
% mp2 density relaxed end
*xyz 0 1
 C        1.0153280000    -0.0918170000     0.0818110000 
 C        2.4845870000     0.0769440000     0.0880500000 
 C        3.2906100000     1.1649780000     0.0907810000 
 C        4.6015590000     0.6082780000     0.0968370000 
 N        5.7788910000     1.2850550000     0.1013640000 
 N        4.5687530000    -0.7013830000     0.0976130000 
 O        3.2197140000    -1.0346010000     0.0919950000 
 H        0.5232150000     0.8798750000     0.0789670000 
 H        0.6869070000    -0.6485660000     0.9627660000 
 H        0.6945490000    -0.6498590000    -0.8011400000 
 H        3.0014280000     2.2029180000     0.0887890000 
 H        5.7977090000     2.2836760000     0.1014850000 
 H        6.6420490000     0.7767920000     0.1059720000 
*
