! RI-MP2 RIJK def2-TZVP def2-TZVP/C def2-TZVP/JK TIGHTSCF
% maxcore 2000
% mp2 density relaxed end
*xyz 0 1
 C        1.0135560000    -0.0613740000    -0.0733770000 
 C        2.4962020000     0.0787670000    -0.0182550000 
 C        3.2348380000     1.2509260000    -0.0996110000 
 N        4.5141740000     0.8699420000    -0.0043940000 
 O        5.5825730000     1.7118870000    -0.0379680000 
 N        4.7024970000    -0.4163170000     0.1303450000 
 C        3.4650080000    -0.9227810000     0.1238870000 
 H        0.5314670000     0.9130940000    -0.1651750000 
 H        0.6219480000    -0.5392260000     0.8281650000 
 H        0.6985000000    -0.6666030000    -0.9273240000 
 H        2.9565760000     2.2854700000    -0.2133020000 
 H        6.3302600000     1.1040900000     0.0576330000 
 H        3.3272240000    -1.9889840000     0.2224740000 
*
