! RI-MP2 RIJK def2-TZVP def2-TZVP/C def2-TZVP/JK TIGHTSCF
% maxcore 2000
% mp2 density relaxed end
*xyz 0 1
 C        1.0671420000     0.0284650000     0.1586100000 
 C        2.3739880000     0.0834400000    -0.0407630000 
 C        3.2710200000     1.2802810000    -0.1014060000 
 O        4.5930800000     0.7883390000    -0.3441360000 
 N        4.4770450000    -0.6021920000    -0.4133690000 
 C        3.2317050000    -1.1062130000    -0.2517720000 
 N        2.8130810000    -2.3114020000    -0.2644050000 
 H        0.4669480000     0.9180090000     0.3099100000 
 H        0.5776520000    -0.9381690000     0.1715870000 
 H        3.2825270000     1.8403100000     0.8388030000 
 H        3.0052460000     1.9597990000    -0.9169860000 
 H        5.3474770000    -1.0702210000    -0.5804940000 
 H        3.5629900000    -2.9793470000    -0.4250770000 
*
