! RI-MP2 RIJK def2-TZVP def2-TZVP/C def2-TZVP/JK TIGHTSCF
% maxcore 2000
% mp2 density relaxed end
*xyz 0 1
 C        0.9929730000     0.3176350000    -0.2100040000 
 C        2.4726270000     0.2043210000     0.0019880000 
 N        3.2447080000    -0.8243250000    -0.6731680000 
 C        3.4129810000     0.5766230000    -1.0837190000 
 C        4.7222370000     1.1727960000    -0.7987940000 
 N        5.1809610000     2.0687420000    -1.5671460000 
 O        6.4118490000     2.5318180000    -1.1392590000 
 H        0.4572030000    -0.4390880000     0.3698320000 
 H        0.7375290000     0.1817710000    -1.2646260000 
 H        0.6264790000     1.2989210000     0.1013650000 
 H        2.8049830000     0.3758790000     1.0234890000 
 H        2.6694530000    -1.3144860000    -1.3509100000 
 H        2.9672740000     0.8993320000    -2.0201510000 
 H        5.2775850000     0.8290040000     0.0756530000 
 H        6.6430470000     3.1827580000    -1.8073410000 
*
