! RI-MP2 RIJK def2-TZVP def2-TZVP/C def2-TZVP/JK TIGHTSCF
% maxcore 2000
% mp2 density relaxed end
*xyz 0 1
 C        0.8366240000    -0.0861730000     0.1345290000 
 C        2.3428760000    -0.0217840000    -0.0475850000 
 N        2.8028570000    -0.0264630000    -1.4178540000 
 C        3.0735080000     0.9671830000     0.8769580000 
 O        3.6696930000    -0.1411280000     1.6143400000 
 C        3.1016000000    -1.0536880000     0.7904380000 
 O        3.2232060000    -2.2329620000     0.7983160000 
 H        0.3647620000     0.7759100000    -0.3462120000 
 H        0.5513660000    -0.0851420000     1.1892910000 
 H        0.4434020000    -0.9953110000    -0.3250490000 
 H        2.1920030000     0.5269900000    -2.0069910000 
 H        2.7967530000    -0.9730390000    -1.7797110000 
 H        2.4536490000     1.5738180000     1.5376000000 
 H        3.8444020000     1.5577790000     0.3846300000 
*
