! RI-MP2 RIJK def2-TZVP def2-TZVP/C def2-TZVP/JK TIGHTSCF
% maxcore 2000
% mp2 density relaxed end
*xyz 0 1
 C        1.1293220000    -0.1021640000     0.2656680000 
 C        2.5747320000     0.0030710000    -0.0455830000 
 N        3.2644650000    -0.9979580000    -0.4279800000 
 O        4.5707010000    -0.6217540000    -0.6706970000 
 C        4.7533280000     0.7109610000    -0.1811910000 
 C        3.3576480000     1.2939190000    -0.0863110000 
 O        2.9547470000     2.1035890000    -1.1730050000 
 H        0.7700430000    -1.1118960000     0.0705770000 
 H        0.5588410000     0.6078850000    -0.3387070000 
 H        0.9408890000     0.1430510000     1.3150760000 
 H        5.4019980000     1.2556710000    -0.8679240000 
 H        5.2220840000     0.6543220000     0.8072570000 
 H        3.2238600000     1.9125410000     0.8017850000 
 H        3.0071530000     1.5773620000    -1.9774660000 
*
