! RI-MP2 RIJK def2-TZVP def2-TZVP/C def2-TZVP/JK TIGHTSCF
% maxcore 2000
% mp2 density relaxed end
*xyz 0 1
 C        1.0284850000    -0.0219000000    -0.3588350000 
 C        2.1908340000     0.2429440000     0.2293260000 
 C        2.9274830000    -0.6981250000     1.0456410000 
 C        4.1097030000    -0.5702710000     1.7007260000 
 O        4.3850460000    -1.7072210000     2.3201670000 
 N        3.3207570000    -2.5825700000     2.0338030000 
 N        2.5066390000    -1.9839480000     1.3090310000 
 H        0.5262530000     0.7266110000    -0.9581560000 
 H        0.5528690000    -0.9900520000    -0.2555970000 
 H        2.6495210000     1.2201370000     0.1123720000 
 H        4.8173210000     0.2362850000     1.8009110000 
*
