! RI-MP2 RIJK def2-TZVP def2-TZVP/C def2-TZVP/JK TIGHTSCF
% maxcore 2000
% mp2 density relaxed end
*xyz 0 1
 C        1.0699850000     0.0337120000     0.0443840000 
 C        2.2682940000     0.0879640000     0.0447880000 
 C        3.6744810000     0.1552960000     0.0452650000 
 N        4.4312640000     1.2046770000     0.0464910000 
 N        5.7267500000     0.7452970000     0.0464290000 
 C        5.6534920000    -0.5370000000     0.0451600000 
 O        4.3915570000    -0.9959750000     0.0443480000 
 H        0.0057140000    -0.0084160000     0.0440300000 
 H        6.4572530000    -1.2555560000     0.0446940000 
*
