! RI-MP2 RIJK def2-TZVP def2-TZVP/C def2-TZVP/JK TIGHTSCF
% maxcore 2000
% mp2 density relaxed end
*xyz 0 1
 C        1.0542430000    -0.0387460000     0.1056400000 
 C        2.3767930000    -0.1647680000     0.0415390000 
 N        3.2451860000     0.8271120000    -0.3584740000 
 C        4.6020660000     0.7354750000    -0.4365240000 
 N        5.4028040000    -0.2225900000    -0.1810520000 
 C        5.2378650000     2.0090300000    -0.9121560000 
 O        4.6032560000     2.9913530000    -1.1891430000 
 H        0.4472220000    -0.8708120000     0.4313680000 
 H        0.5490930000     0.8827330000    -0.1606970000 
 H        2.8541380000    -1.0992720000     0.3144480000 
 H        2.8758890000     1.7294230000    -0.6297790000 
 H        4.9338180000    -1.0674820000     0.1383710000 
 H        6.3376370000     1.9534530000    -0.9818510000 
*
