! RI-MP2 RIJK def2-TZVP def2-TZVP/C def2-TZVP/JK TIGHTSCF
% maxcore 2000
% mp2 density relaxed end
*xyz 0 1
 C        1.1102260000     0.4596880000     0.2651000000 
 N        2.2522320000    -0.1589850000    -0.3545170000 
 C        2.9413640000     0.3705690000    -1.3845010000 
 N        3.9548660000    -0.1424020000    -1.9604060000 
 C        4.3440650000     0.7900050000    -3.0032580000 
 C        3.3328150000     1.9494790000    -2.8971960000 
 O        2.4722560000     1.5673070000    -1.8153220000 
 H        0.7602350000    -0.1910750000     1.0657360000 
 H        0.2884560000     0.6023680000    -0.4420310000 
 H        1.3575040000     1.4321270000     0.6997370000 
 H        2.5888110000    -1.0444140000    -0.0265850000 
 H        4.3089250000     0.3086850000    -3.9862620000 
 H        5.3729820000     1.1330280000    -2.8522150000 
 H        2.7191740000     2.0762340000    -3.7913700000 
 H        3.7923790000     2.9070860000    -2.6442000000 
*
