! RI-MP2 RIJK def2-TZVP def2-TZVP/C def2-TZVP/JK TIGHTSCF
% maxcore 2000
% mp2 density relaxed end
*xyz 0 1
 C        2.7964140000     0.3932780000     0.5483620000 
 O        2.2782090000     0.1914040000    -0.7330080000 
 C        3.1832690000     0.0048100000    -1.7482840000 
 C        2.5669360000    -0.1954960000    -3.0307920000 
 O        3.1730820000    -0.3813240000    -4.0787940000 
 C        4.5381920000     0.0029310000    -1.5955900000 
 N        5.4057220000    -0.1824850000    -2.6079990000 
 H        1.9447510000     0.5209210000     1.2151720000 
 H        3.4245160000     1.2936650000     0.5957840000 
 H        3.3890360000    -0.4676320000     0.8876100000 
 H        1.4603570000    -0.1709430000    -3.0152610000 
 H        4.9816740000     0.1561150000    -0.6185610000 
 H        5.0225820000    -0.3284560000    -3.5332760000 
 H        6.3924590000    -0.1749990000    -2.4431750000 
*
