! RI-MP2 RIJK def2-TZVP def2-TZVP/C def2-TZVP/JK TIGHTSCF
% maxcore 2000
% mp2 density relaxed end
*xyz 0 1
 N        0.8864360000    -0.0602380000    -0.0922710000 
 C        2.1585200000    -0.0234640000    -0.0912660000 
 C        2.9507600000     1.2711670000    -0.1042860000 
 O        4.3667100000     1.1964450000    -0.1018070000 
 C        4.9507420000    -0.0272890000    -0.0880400000 
 C        4.2737810000    -1.1694810000    -0.0766270000 
 N        2.8828710000    -1.1698640000    -0.0782470000 
 H        0.4927680000     0.8764690000    -0.1027320000 
 H        2.6449810000     1.8508320000     0.7733170000 
 H        2.6470640000     1.8317750000    -0.9948990000 
 H        6.0289250000     0.0255570000    -0.0873400000 
 H        4.7708210000    -2.1267150000    -0.0658140000 
 H        2.3617310000    -2.0301810000    -0.0695880000 
*
