! RI-MP2 RIJK def2-TZVP def2-TZVP/C def2-TZVP/JK TIGHTSCF
% maxcore 2000
% mp2 density relaxed end
*xyz 0 1
 N        0.9143850000    -0.0548370000     0.0211010000 
 C        2.0625420000     0.0244680000     0.0249720000 
 C        3.4707130000     0.1529340000     0.0296200000 
 C        4.2799530000     1.2423140000     0.0300220000 
 C        5.5710180000     0.6700950000     0.0358250000 
 N        5.5240930000    -0.6330120000     0.0385740000 
 O        4.2047380000    -0.9707720000     0.0347030000 
 H        3.9921140000     2.2795810000     0.0266960000 
 H        6.5315350000     1.1639280000     0.0380880000 
*
