! RI-MP2 RIJK def2-TZVP def2-TZVP/C def2-TZVP/JK TIGHTSCF
% maxcore 2000
% mp2 density relaxed end
*xyz 0 1
 N        1.2287150000     0.2612710000     0.3006460000 
 C        1.4551600000    -0.9640020000    -0.4454570000 
 C        2.4133890000    -1.8645820000     0.2791090000 
 C        3.1641130000    -2.9113100000    -0.4749210000 
 N        3.8391600000    -1.7598970000     0.0456820000 
 C        4.4785410000    -0.8257060000    -0.7284990000 
 O        5.1376920000    -1.0672000000    -1.7061500000 
 H        0.4845060000     0.8042590000    -0.1172030000 
 H        2.0567040000     0.8441430000     0.3051110000 
 H        1.8220690000    -0.8151420000    -1.4740920000 
 H        0.4978980000    -1.4893380000    -0.5230950000 
 H        2.1464620000    -2.0660420000     1.3132830000 
 H        3.0362780000    -2.9520140000    -1.5529140000 
 H        3.3923210000    -3.8570790000     0.0040270000 
 H        4.3897990000     0.1947270000    -0.3097270000 
*
