! RI-MP2 RIJK def2-TZVP def2-TZVP/C def2-TZVP/JK TIGHTSCF
% maxcore 2000
% mp2 density relaxed end
*xyz 0 1
 N        0.9442890000    -0.0808270000    -0.0724630000 
 C        2.0950040000    -0.0897130000    -0.0692800000 
 C        3.5124680000    -0.0702250000    -0.0655420000 
 C        4.3234740000     1.0163640000    -0.0670240000 
 O        5.5956440000     0.5740940000    -0.0621200000 
 C        5.4924630000    -0.7711640000    -0.0578720000 
 N        4.2897770000    -1.2162800000    -0.0596300000 
 H        4.1580240000     2.0798390000    -0.0710420000 
 H        6.4134580000    -1.3325880000    -0.0535160000 
*
