! RI-MP2 RIJK def2-TZVP def2-TZVP/C def2-TZVP/JK TIGHTSCF
% maxcore 2000
% mp2 density relaxed end
*xyz 0 1
 N        0.9441380000     0.0850340000    -0.1538430000 
 C        2.2664580000    -0.0452720000    -0.0119890000 
 C        2.9470220000    -0.8500110000     0.8602260000 
 C        2.2928330000    -1.7331040000     1.8166230000 
 O        2.8561220000    -2.4550990000     2.5989070000 
 C        4.3676220000    -0.8121690000     0.8199830000 
 N        5.5180670000    -0.7662550000     0.7708550000 
 H        0.5722420000     0.7162360000    -0.8379720000 
 H        0.2890710000    -0.4309540000     0.4047650000 
 H        2.8488200000     0.5760340000    -0.6847960000 
 H        1.1802040000    -1.7099900000     1.7907800000 
*
