! RI-MP2 RIJK def2-TZVP def2-TZVP/C def2-TZVP/JK TIGHTSCF
% maxcore 2000
% mp2 density relaxed end
*xyz 0 1
 N        1.5829070000    -0.0247900000    -1.0522730000 
 C        1.9934640000    -0.1052120000     0.2341940000 
 N        2.2454270000    -1.1195550000     0.9616530000 
 C        2.1815210000     1.2630760000     0.8540200000 
 O        1.9092670000     2.2656250000     0.2337300000 
 C        2.6871450000     1.3062850000     2.2022430000 
 C        3.1087780000     1.4208970000     3.3206050000 
 H        1.2820970000    -0.8414300000    -1.5503870000 
 H        1.3428610000     0.8871040000    -1.4053970000 
 H        2.0861440000    -1.9967500000     0.4675850000 
 H        3.4831100000     1.5071510000     4.3141080000 
*
