! RI-MP2 RIJK def2-TZVP def2-TZVP/C def2-TZVP/JK TIGHTSCF
% maxcore 2000
% mp2 density relaxed end
*xyz 0 1
 N        3.3693770000    -1.9696710000    -0.5467330000 
 C        3.9244120000    -0.7601360000    -0.7093270000 
 O        3.9051910000    -0.0974820000    -1.7252530000 
 C        4.6253240000    -0.2598150000     0.5701510000 
 O        4.6224820000    -0.9500220000     1.5645440000 
 C        5.2592220000     1.0645440000     0.4680310000 
 C        5.8908800000     1.5935380000     1.5113240000 
 H        2.8823560000    -2.4059060000    -1.3089130000 
 H        3.4528010000    -2.4228030000     0.3479350000 
 H        5.1795210000     1.5668490000    -0.4878530000 
 H        5.9453450000     1.0526660000     2.4507480000 
 H        6.3637910000     2.5667370000     1.4563560000 
*
