! RI-MP2 RIJK def2-TZVP def2-TZVP/C def2-TZVP/JK TIGHTSCF
% maxcore 2000
% mp2 density relaxed end
*xyz 0 1
 O        0.5671140000    -0.9860740000    -0.8303120000 
 C       -0.4287880000    -1.3343020000     0.0323720000 
 N       -1.3867950000    -0.5684570000     0.3454420000 
 C       -1.3735580000     0.7466410000    -0.0447510000 
 C       -0.2669440000     1.5133730000    -0.1460170000 
 C        1.0480480000     0.9971720000     0.1185780000 
 N        1.4997040000    -0.1839300000    -0.0744570000 
 H       -0.3844380000    -2.3530850000     0.4123500000 
 H       -2.3551570000     1.1983250000    -0.1492120000 
 H       -0.3766790000     2.5850170000    -0.2652620000 
 H        1.7816830000     1.6459300000     0.5959800000 
*
