! RI-MP2 RIJK def2-TZVP def2-TZVP/C def2-TZVP/JK TIGHTSCF
% maxcore 2000
% mp2 density relaxed end
*xyz 0 1
 O        1.0729930000    -0.0447540000     0.2525660000 
 C        2.4101950000     0.0660180000     0.1200490000 
 C        3.0421710000     1.3092510000     0.0323720000 
 C        4.4157150000     1.3292790000    -0.1017660000 
 C        5.1113650000     0.1287420000    -0.1442310000 
 C        4.3784480000    -1.0414340000    -0.0482610000 
 N        3.0564770000    -1.0814070000     0.0812740000 
 H        0.6820060000     0.8332720000     0.2721530000 
 H        2.4695590000     2.2301490000     0.0687450000 
 H        4.9391860000     2.2762040000    -0.1726480000 
 H        6.1882080000     0.1000240000    -0.2484590000 
 H        4.8780760000    -2.0061450000    -0.0766040000 
*
