! RI-MP2 RIJK def2-TZVP def2-TZVP/C def2-TZVP/JK TIGHTSCF
% maxcore 2000
% mp2 density relaxed end
*xyz 0 1
 O        1.0465530000    -0.1622380000     0.4739110000 
 C        2.1810160000    -0.0711310000     0.1169280000 
 C        2.8573390000     1.1944240000    -0.3177810000 
 C        4.3122190000     1.1921530000     0.1144250000 
 C        4.8997740000    -0.1131120000    -0.2863880000 
 N        4.2722650000    -1.2119940000    -0.3516300000 
 O        2.9346640000    -1.2080960000     0.0761700000 
 H        2.2882500000     2.0318970000     0.0820810000 
 H        2.7925030000     1.2379670000    -1.4105960000 
 H        4.3982260000     1.3089830000     1.2016400000 
 H        4.8686960000     2.0159880000    -0.3353960000 
 H        5.9419960000    -0.1940420000    -0.5833740000 
*
