! RI-MP2 RIJK def2-TZVP def2-TZVP/C def2-TZVP/JK TIGHTSCF
% maxcore 2000
% mp2 density relaxed end
*xyz 0 1
 O        1.3914250000    -0.1777660000     0.7085160000 
 C        2.4648710000    -0.0395910000     0.1896550000 
 C        3.1982820000     1.2550040000    -0.1016830000 
 C        4.5066150000     0.8398890000    -0.7667160000 
 C        4.4666480000    -0.6745810000    -0.8261160000 
 O        5.2977160000    -1.4167770000    -1.2722840000 
 N        3.2696530000    -1.0693830000    -0.2594170000 
 H        3.3353180000     1.7920790000     0.8382700000 
 H        2.5624400000     1.8766070000    -0.7341420000 
 H        5.3961350000     1.1396970000    -0.2103350000 
 H        4.6224570000     1.2213190000    -1.7825070000 
 H        3.0026500000    -2.0391950000    -0.1793400000 
*
