! RI-MP2 RIJK def2-TZVP def2-TZVP/C def2-TZVP/JK TIGHTSCF
% maxcore 2000
% mp2 density relaxed end
*xyz 0 1
 O        1.0020310000    -0.0704750000     0.1640870000 
 C        2.2140150000     0.0023100000     0.1063640000 
 C        2.9989450000     1.2087880000     0.0230020000 
 C        4.3349570000     1.0961710000    -0.0329920000 
 O        5.0099040000    -0.0548640000    -0.0178930000 
 N        4.3406450000    -1.2504160000     0.0598040000 
 C        3.0638480000    -1.2039380000     0.1157390000 
 H        2.5234820000     2.1801180000     0.0060000000 
 H        5.0209530000     1.9330150000    -0.0972190000 
 H        2.5808080000    -2.1749080000     0.1760970000 
*
