! RI-MP2 RIJK def2-TZVP def2-TZVP/C def2-TZVP/JK TIGHTSCF
% maxcore 2000
% mp2 density relaxed end
*xyz 0 1
 O        1.1707330000    -0.0250460000    -0.4650360000 
 C        2.3288820000     0.0517860000    -0.1573810000 
 N        3.1831350000    -1.0081410000     0.0987520000 
 C        4.4563820000    -0.5729660000     0.4277830000 
 O        5.3986270000    -1.2665900000     0.6978280000 
 C        4.3906290000     0.9204320000     0.3710040000 
 C        3.1580770000     1.2823770000     0.0319990000 
 H        2.9119030000    -1.9759600000     0.0515840000 
 H        5.2517190000     1.5366670000     0.5850280000 
 H        2.7471020000     2.2721610000    -0.1038500000 
*
