! RI-MP2 RIJK def2-TZVP def2-TZVP/C def2-TZVP/JK TIGHTSCF
% maxcore 2000
% mp2 density relaxed end
*xyz 0 1
 O        1.4439140000     0.3670650000     0.5220550000 
 C        2.4279240000     0.0482040000    -0.0589040000 
 O        2.5192570000    -1.0962580000    -0.7852240000 
 C        3.8270590000    -1.2614670000    -1.3167980000 
 C        4.5250480000     0.0395680000    -1.0063790000 
 C        3.8914500000     1.2803920000    -1.4696970000 
 N        3.6493930000     0.7797020000    -0.1022260000 
 H        3.7474810000    -1.4841410000    -2.3830700000 
 H        4.3124170000    -2.1004260000    -0.8115710000 
 H        5.5775110000     0.0202700000    -0.7503870000 
 H        3.0726380000     1.2075450000    -2.1794930000 
 H        4.4620070000     2.2000560000    -1.5076160000 
*
