! RI-MP2 RIJK def2-TZVP def2-TZVP/C def2-TZVP/JK TIGHTSCF
% maxcore 2000
% mp2 density relaxed end
*xyz 0 1
 O        0.8783600000     0.0888730000    -0.0929590000 
 C        2.2058590000     0.0569640000    -0.0496740000 
 C        2.9048350000    -0.2739420000     1.0571070000 
 C        4.3495350000    -0.3168580000     1.1324460000 
 C        4.6342960000    -0.6892460000     2.4032790000 
 C        3.3529630000    -0.8595630000     3.0555740000 
 N        2.3379310000    -0.6194880000     2.2781440000 
 H        0.5807420000     0.3471410000    -0.9692570000 
 H        2.7392950000     0.3135430000    -0.9620100000 
 H        5.0387620000    -0.0944190000     0.3300730000 
 H        5.6074820000    -0.8329100000     2.8500850000 
 H        3.2037390000    -1.1566850000     4.0884910000 
*
