! RI-MP2 RIJK def2-TZVP def2-TZVP/C def2-TZVP/JK TIGHTSCF
% maxcore 2000
% mp2 density relaxed end
*xyz 0 1
 O        0.9745510000    -0.1092500000     0.0897980000 
 C        2.3025650000    -0.1191900000     0.0559090000 
 C        3.0140160000     0.7176260000    -0.7196710000 
 C        4.4531110000     0.7872130000    -0.8286870000 
 N        4.8032980000     1.7041590000    -1.6646510000 
 N        3.6387810000     2.3127220000    -2.1744340000 
 C        2.6060260000     1.7539350000    -1.6385710000 
 H        0.6434410000    -0.7751920000     0.6994210000 
 H        2.8038770000    -0.8454710000     0.6929520000 
 H        5.1844880000     0.1816770000    -0.3076630000 
 H        1.5985350000     2.0619700000    -1.8831230000 
*
