! RI-MP2 RIJK def2-TZVP def2-TZVP/C def2-TZVP/JK TIGHTSCF
% maxcore 2000
% mp2 density relaxed end
*xyz 0 1
 O        1.7721490000     0.2013940000     1.3079720000 
 C        2.0286180000    -0.2290650000     0.2168130000 
 C        3.1039790000    -1.2503830000    -0.0250310000 
 N        3.8244370000    -1.7147320000     1.1578390000 
 C        3.1479280000    -3.0303920000     1.1571600000 
 C        2.5384480000    -2.6829890000    -0.1888500000 
 O        1.9237740000    -3.2473930000    -1.0316180000 
 H        1.4749580000     0.0978600000    -0.6849270000 
 H        3.7259610000    -0.9251370000    -0.8689130000 
 H        3.5906170000    -1.1479040000     1.9661130000 
 H        2.3789630000    -3.1653390000     1.9275290000 
 H        3.8174670000    -3.8945090000     1.1632130000 
*
