! RI-MP2 RIJK def2-TZVP def2-TZVP/C def2-TZVP/JK TIGHTSCF
% maxcore 2000
% mp2 density relaxed end
*xyz 0 1
 O        2.0588450000     0.9693870000    -0.8253740000 
 C        1.9619750000    -0.0676610000    -0.2324620000 
 C        3.0879450000    -1.0776710000    -0.0810370000 
 N        2.5643240000    -2.4328840000    -0.0041570000 
 C        3.1128000000    -3.1280180000     1.1593970000 
 C        3.7687500000    -2.0304860000     1.9310500000 
 C        3.7676950000    -0.8953130000     1.2472260000 
 H        1.0235410000    -0.3769550000     0.2769160000 
 H        3.7897690000    -0.9048900000    -0.9104780000 
 H        2.6766120000    -2.9442710000    -0.8644070000 
 H        3.8427160000    -3.9078070000     0.8926860000 
 H        2.3225650000    -3.6218090000     1.7388640000 
 H        4.2003360000    -2.1758490000     2.9132560000 
 H        4.1862060000     0.0516380000     1.5613190000 
*
