! RI-MP2 RIJK def2-TZVP def2-TZVP/C def2-TZVP/JK TIGHTSCF
% maxcore 2000
% mp2 density relaxed end
*xyz 0 1
 O        1.1134490000     0.1001580000     0.2163790000 
 C        2.5047330000     0.0328070000     0.0382190000 
 C        3.0241160000    -1.0739400000     0.9631670000 
 C        2.5500750000    -2.4414570000     0.5539690000 
 C        1.7312070000    -3.1839890000     1.2790250000 
 C        4.4838510000    -1.0227650000     0.9878100000 
 N        5.6326400000    -0.9776560000     0.9819140000 
 H        0.7516600000     0.7344070000    -0.4063580000 
 H        2.9953050000     0.9768070000     0.3068480000 
 H        2.7758920000    -0.2092220000    -0.9978550000 
 H        2.6641970000    -0.8537970000     1.9740460000 
 H        2.9170180000    -2.7988890000    -0.4049510000 
 H        1.3538330000    -2.8444800000     2.2379110000 
 H        1.4032940000    -4.1577440000     0.9355950000 
*
