! RI-MP2 RIJK def2-TZVP def2-TZVP/C def2-TZVP/JK TIGHTSCF
% maxcore 2000
% mp2 density relaxed end
*xyz 0 1
 O        0.9502870000    -0.0962890000     0.3107980000 
 C        2.1378340000    -0.0421770000     0.1463240000 
 N        3.0371170000    -0.3641470000     1.1466310000 
 C        4.4107410000    -0.3149560000     0.9966360000 
 O        4.9618630000     0.0138440000    -0.0230710000 
 C        5.1290540000    -0.7019280000     2.1959240000 
 C        5.7416170000    -1.0186780000     3.1777770000 
 H        2.6310470000     0.2592020000    -0.7878430000 
 H        2.6479270000    -0.6505920000     2.0337860000 
 H        6.2977130000    -1.2973790000     4.0432400000 
*
