! RI-MP2 RIJK def2-TZVP def2-TZVP/C def2-TZVP/JK TIGHTSCF
% maxcore 2000
% mp2 density relaxed end
*xyz 0 1
 O        1.2825130000    -0.3979660000     0.3032300000 
 N        2.5137470000    -0.3185040000    -0.3064140000 
 C        3.4354970000    -1.4089020000    -0.2037620000 
 C        4.7296230000    -0.7235000000    -0.5176530000 
 C        4.5497950000     0.5935720000    -0.6148840000 
 C        3.1290570000     0.8971010000    -0.3421320000 
 O        2.5451540000     1.9436630000    -0.1274150000 
 H        1.0826560000     0.5466040000     0.4531670000 
 H        3.2045520000    -2.2153390000    -0.9080870000 
 H        3.4337650000    -1.8310990000     0.8092050000 
 H        5.6513200000    -1.2691030000    -0.6665640000 
 H        5.2865320000     1.3544720000    -0.8252910000 
*
