! RI-MP2 RIJK def2-TZVP def2-TZVP/C def2-TZVP/JK TIGHTSCF
% maxcore 2000
% mp2 density relaxed end
*xyz 0 1
 O        0.8764070000     0.0537340000    -0.0415630000 
 N        2.2301060000     0.1297110000     0.0485510000 
 C        2.8228350000    -0.6074920000    -0.8261930000 
 C        2.1479940000    -1.4164090000    -1.7859750000 
 C        1.5965510000    -2.1037410000    -2.6015600000 
 C        4.2480240000    -0.6054610000    -0.8238340000 
 C        5.4475560000    -0.6367800000    -0.8610450000 
 H        0.5772190000     0.6433760000     0.6580790000 
 H        1.1034800000    -2.7115490000    -3.3234590000 
 H        6.5116270000    -0.6561890000    -0.8840100000 
*
