! RI-MP2 RIJK def2-TZVP def2-TZVP/C def2-TZVP/JK TIGHTSCF
% maxcore 2000
% mp2 density relaxed end
*xyz 0 1
 O        0.8722720000    -0.0520800000    -0.0105820000 
 N        2.2182350000     0.0868760000    -0.1470400000 
 C        2.8446370000    -0.8730560000     0.4188890000 
 C        4.2545260000    -0.8959600000     0.3795270000 
 C        5.4590300000    -0.9889670000     0.3929480000 
 C        6.8954190000    -1.0306110000     0.3653570000 
 O        7.5554700000    -1.8997360000     0.8759500000 
 H        0.5161250000     0.7161100000    -0.4690120000 
 H        2.3092850000    -1.6729380000     0.9308540000 
 H        7.3650910000    -0.1853580000    -0.1720810000 
*
