! RI-MP2 RIJK def2-TZVP def2-TZVP/C def2-TZVP/JK TIGHTSCF
% maxcore 2000
% mp2 density relaxed end
*xyz 0 1
 O        3.0441270000     0.2860520000    -1.5219990000 
 N        2.4527970000     0.2011910000    -0.2769630000 
 C        3.2241530000     0.1960360000     0.8469020000 
 O        2.7972740000    -0.2046660000     1.9032690000 
 C        4.6224830000     0.7796460000     0.6797020000 
 C        4.6343080000     2.1005980000     0.0770110000 
 C        4.6227650000     3.1943500000    -0.4184500000 
 H        3.0434380000     1.2288310000    -1.7356140000 
 H        1.6184120000    -0.3675170000    -0.2706580000 
 H        5.2105920000     0.0919280000     0.0622950000 
 H        5.0636700000     0.8057540000     1.6768780000 
 H        4.6315810000     4.1724970000    -0.8386810000 
*
