! RI-MP2 RIJK def2-TZVP def2-TZVP/C def2-TZVP/JK TIGHTSCF
% maxcore 2000
% mp2 density relaxed end
*xyz 0 1
 C        1.3077070000    -0.5853250000    -0.0991010000 
 O        2.4304390000     0.3761570000     0.0134840000 
 C        3.3072700000    -0.6862800000    -0.0936300000 
 C        4.5759190000    -1.1593030000    -0.1342040000 
 S        4.3802090000    -2.8762310000    -0.3201490000 
 N        2.7168410000    -2.9197970000    -0.3387600000 
 C        2.3486120000    -1.6823930000    -0.2085940000 
 H        0.7137680000    -0.3764360000    -0.9890990000 
 H        0.6990890000    -0.5694180000     0.8052370000 
 H        5.5481370000    -0.6955750000    -0.0763950000 
*
