! RI-MP2 RIJK def2-TZVP def2-TZVP/C def2-TZVP/JK TIGHTSCF
% maxcore 2000
% mp2 density relaxed end
*xyz 0 1
 C        0.9648710000     0.2013180000     0.0141580000 
 C        2.4384940000    -0.1916520000     0.0150460000 
 C        2.7950320000    -1.1699710000     1.0839210000 
 C        3.2656750000    -2.4482690000     0.9388260000 
 N        3.4945240000    -3.1106590000     2.0988480000 
 N        3.2345440000    -2.4381170000     3.1467780000 
 S        2.6739430000    -0.8993750000     2.7506400000 
 H        0.7559200000     0.8966540000    -0.8010530000 
 H        0.6839610000     0.6871900000     0.9511050000 
 H        0.3265540000    -0.6753590000    -0.1119870000 
 H        3.0567240000     0.7050730000     0.1229700000 
 H        2.7058330000    -0.6358770000    -0.9475300000 
 H        3.4613160000    -2.9443560000    -0.0022300000 
*
