! RI-MP2 RIJK def2-TZVP def2-TZVP/C def2-TZVP/JK TIGHTSCF
% maxcore 2000
% mp2 density relaxed end
*xyz 0 1
 C        0.9544120000    -0.1230960000     0.0046180000 
 C        2.1555560000    -0.0980160000     0.0070280000 
 C        3.5741070000    -0.0452040000     0.0097900000 
 C        4.3030160000     1.1154620000     0.0069770000 
 S        5.9625080000     0.7549900000     0.0117850000 
 C        5.5803190000    -0.9198250000     0.0172410000 
 N        4.3184620000    -1.1980720000     0.0156470000 
 H       -0.1093980000    -0.1556330000     0.0025240000 
 H        3.9332590000     2.1283250000     0.0024240000 
 H        6.3614500000    -1.6685420000     0.0216660000 
*
