! RI-MP2 RIJK def2-TZVP def2-TZVP/C def2-TZVP/JK TIGHTSCF
% maxcore 2000
% mp2 density relaxed end
*xyz 0 1
 C        0.9737990000     0.0423910000     0.0344400000 
 C        2.1753350000     0.0174290000     0.0316020000 
 C        3.5860240000    -0.0551460000     0.0284430000 
 N        4.3936400000     0.9714870000     0.0235780000 
 C        5.6862720000     0.5629840000     0.0216530000 
 C        5.8879590000    -0.7860120000     0.0250170000 
 S        4.3886820000    -1.5881560000     0.0308300000 
 H       -0.0900880000     0.0794090000     0.0369440000 
 H        6.4755560000     1.3031250000     0.0176630000 
 H        6.8213190000    -1.3272910000     0.0243300000 
*
