! RI-MP2 RIJK def2-TZVP def2-TZVP/C def2-TZVP/JK TIGHTSCF
% maxcore 2000
% mp2 density relaxed end
*xyz 0 1
 C        1.0431700000    -0.1108520000     0.0603370000 
 C        2.2416810000    -0.0565040000     0.0608740000 
 C        3.6631320000     0.0053410000     0.0615070000 
 N        4.2834130000     1.1679350000     0.0632230000 
 S        5.8868600000     0.8715110000     0.0634720000 
 C        5.6610580000    -0.8160740000     0.0612430000 
 N        4.4036270000    -1.1429450000     0.0603380000 
 H       -0.0204260000    -0.1585260000     0.0598610000 
 H        6.4702940000    -1.5349950000     0.0606460000 
*
