! RI-MP2 RIJK def2-TZVP def2-TZVP/C def2-TZVP/JK TIGHTSCF
% maxcore 2000
% mp2 density relaxed end
*xyz 0 1
 N        0.8664980000     0.1091270000     0.0746940000 
 C        2.0182250000     0.0519980000     0.0797380000 
 C        3.4266790000    -0.0218890000     0.0850140000 
 C        4.3172000000     1.0236790000     0.0869450000 
 C        5.6558630000     0.5861960000     0.0924890000 
 C        5.7587810000    -0.7765320000     0.0945940000 
 S        4.2398340000    -1.5355100000     0.0898550000 
 H        4.0039670000     2.0586290000     0.0844700000 
 H        6.5097510000     1.2496590000     0.0948320000 
 H        6.6578910000    -1.3743660000     0.0986990000 
*
