! RI-MP2 RIJK def2-TZVP def2-TZVP/C def2-TZVP/JK TIGHTSCF
% maxcore 2000
% mp2 density relaxed end
*xyz 0 1
 O        2.4843350000    -1.2124030000     0.2272820000 
 C        2.0934720000    -0.0932700000     0.0076420000 
 C        2.7944860000     1.1240580000     0.4168760000 
 C        2.3167860000     2.3823070000     0.1478980000 
 S        3.3500080000     3.5831150000     0.7482670000 
 C        4.4454730000     2.4234730000     1.3732580000 
 C        4.0271030000     1.1555810000     1.1264560000 
 H        1.1424570000     0.0807230000    -0.5389030000 
 H        1.4073440000     2.6423830000    -0.3742990000 
 H        5.3377400000     2.7460180000     1.8883310000 
 H        4.5568060000     0.2621270000     1.4270920000 
*
