! RI-MP2 RIJK def2-TZVP def2-TZVP/C def2-TZVP/JK TIGHTSCF
% maxcore 2000
% mp2 density relaxed end
*xyz 0 1
 O        1.5586210000    -0.5927530000     0.8401030000 
 C        2.2553130000     0.0036430000     0.0590750000 
 C        2.9617920000    -0.6262660000    -1.0582750000 
 C        3.7600240000     0.0409890000    -1.9569610000 
 S        4.3706540000    -1.0648940000    -3.0708630000 
 N        3.6304190000    -2.3803590000    -2.4212460000 
 C        2.9302220000    -2.0099540000    -1.3808020000 
 H        2.4041460000     1.0999320000     0.1482520000 
 H        3.9886460000     1.0973030000    -1.9861060000 
 H        2.3696640000    -2.7495610000    -0.8211980000 
*
