! RI-MP2 RIJK def2-TZVP def2-TZVP/C def2-TZVP/JK TIGHTSCF
% maxcore 2000
% mp2 density relaxed end
*xyz 0 1
 O        1.4571160000     0.6920690000     0.3499320000 
 C        2.4166850000    -0.2012100000    -0.1650600000 
 C        2.8862300000     0.2973980000    -1.4890040000 
 C        2.4616130000     1.4316300000    -2.1103870000 
 S        3.2716110000     1.6013410000    -3.6020670000 
 C        4.1197060000     0.1457870000    -3.2900000000 
 N        3.8268180000    -0.4262280000    -2.1647950000 
 H        1.1581730000     0.3604610000     1.1985880000 
 H        2.0021000000    -1.2101160000    -0.2987450000 
 H        3.2853770000    -0.2930330000     0.5017330000 
 H        1.7327430000     2.1441100000    -1.7607160000 
 H        4.8406270000    -0.2451100000    -3.9958900000 
*
