! RI-MP2 RIJK def2-TZVP def2-TZVP/C def2-TZVP/JK TIGHTSCF
% maxcore 2000
% mp2 density relaxed end
*xyz 0 1
 O        2.8740400000    -0.7343340000    -0.8255540000 
 C        2.2987300000    -0.0303010000    -0.0688150000 
 S        3.1170560000     1.1713710000     1.0539700000 
 O        2.7046120000     2.4734320000     0.6277660000 
 O        2.8676840000     0.7174540000     2.3877330000 
 C        4.7683040000     0.9556250000     0.6856480000 
 C        5.9277810000     0.7979560000     0.4206970000 
 H        1.2013920000     0.0120050000     0.0764420000 
 H        6.9600010000     0.6620030000     0.1892140000 
*
