! RI-MP2 RIJK def2-TZVP def2-TZVP/C def2-TZVP/JK TIGHTSCF
% maxcore 2000
% mp2 density relaxed end
*xyz 0 1
 O        0.9825140000     0.0318300000     0.1831530000 
 S        2.4129960000     0.0313400000     0.2986520000 
 O        3.0129340000     0.0317640000     1.6023740000 
 C        3.1147350000     1.3096330000    -0.7052390000 
 C        3.8093400000     0.7682890000    -1.6989900000 
 C        3.8087770000    -0.7086650000    -1.6982540000 
 C        3.1137600000    -1.2484870000    -0.7039640000 
 H        2.9468680000     2.3487180000    -0.4650350000 
 H        4.3364380000     1.3387780000    -2.4530440000 
 H        4.3354390000    -1.2803070000    -2.4517390000 
 H        2.9451000000    -2.2872040000    -0.4627240000 
*
