! RI-MP2 RIJK def2-TZVP def2-TZVP/C def2-TZVP/JK TIGHTSCF
% maxcore 2000
% mp2 density relaxed end
*xyz 0 1
 O        0.9330070000     0.0210730000     0.2186160000 
 S        2.3455150000     0.0753360000     0.0592240000 
 O        3.1995650000     0.3186370000     1.1704970000 
 C        2.9441890000    -1.2976580000    -0.9372820000 
 C        3.3858560000    -0.6371860000    -2.1969990000 
 C        3.2061750000     0.6764250000    -2.1795710000 
 O        2.6619460000     1.2358040000    -1.0569830000 
 H        2.1129600000    -1.9947140000    -1.0619080000 
 H        3.7473700000    -1.7797860000    -0.3761970000 
 H        3.8069580000    -1.1749900000    -3.0327760000 
 H        3.4349480000     1.3978500000    -2.9507210000 
*
